-------------------------------------------------------
          Amber 20 PMEMD                              2020
          -------------------------------------------------------

  [-O]verwriting output

File Assignments:

 Here is the input file:

 &cntrl
   nstlim=1000000, nscm=1000,
   ntx=1, irest=0, ntpr=1000,
   tempi=300.0, temp0=300.0, ntt=3, gamma_ln=2.0,
   ntb=1, igb=0, cut=10.0,
   dt=0.001, ig=-1,
   ntc=1, ntf=1,
   iwrap=0,
   ntwr=1000, ntwx=50000, ntave=1000,
   ioutfm=1, ntwv=-1,
   ifsc = 0, icfe=1,
   clambda=0.11505,
   timask1=':1',
   timask2=':2', crgmask = ':2',
/

Note: ig = -1. Setting random seed to   721276 based on wallclock time in
      microseconds.

--------------------------------------------------------------------------------
   1.  RESOURCE   USE:
--------------------------------------------------------------------------------

 getting box info from netcdf restart file
 NATOM  =      24 NTYPES =       6 NBONH =      16 MBONA  =       6
 NTHETH =      32 MTHETA =       4 NPHIH =      40 MPHIA  =       2
 NHPARM =       0 NPARM  =       0 NNB   =     102 NRES   =       2
 NBONA  =       6 NTHETA =       4 NPHIA =       2 NUMBND =       4
 NUMANG =       6 NPTRA  =       2 NATYP =       6 NPHB   =       1
 IFBOX  =       2 NMXRS  =      12 IFCAP =       0 NEXTRA =       0
 NCOPY  =       0

     BOX TYPE: TRUNCATED OCTAHEDRON

--------------------------------------------------------------------------------
   2.  CONTROL  DATA  FOR  THE  RUN
--------------------------------------------------------------------------------

default_name

General flags:
     imin    =       0, nmropt  =       0

Nature and format of input:
     ntx     =       1, irest   =       0, ntrx    =       1

Nature and format of output:
     ntxo    =       2, ntpr    =    1000, ntrx    =       1, ntwr    =    1000
     iwrap   =       0, ntwx    =   50000, ntwv    =      -1, ntwe    =       0
     ioutfm  =       1, ntwprt  =       0, idecomp =       0, rbornstat=      0

Potential function:
     ntf     =       1, ntb     =       1, igb     =       0, nsnb    =      25
     ipol    =       0, gbsa    =       0, iesp    =       0
     dielc   =   1.00000, cut     =  10.00000, intdiel =   1.00000

Frozen or restrained atoms:
     ibelly  =       0, ntr     =       0

Molecular dynamics:
     nstlim  =   1000000, nscm    =      1000, nrespa  =         1
     t       =   0.00000, dt      =   0.00100, vlimit  =  -1.00000

Langevin dynamics temperature regulation:
     ig      =  721276
     temp0   = 300.00000, tempi   = 300.00000, gamma_ln=   2.00000

Free energy options:
     icfe    =       1, ifsc    =       0, klambda =       1
     clambda =  0.1150, scalpha =  0.5000, scbeta  = 12.0000
     sceeorder =       2
     dynlmb =  0.0000 logdvdl =       0

Ewald parameters:
     verbose =       0, ew_type =       0, nbflag  =       1, use_pme =       1
     vdwmeth =       1, eedmeth =       1, netfrc  =       1
     Box X =   67.054   Box Y =   67.054   Box Z =   67.054
     Alpha =  109.471   Beta  =  109.471   Gamma =  109.471
     NFFT1 =   64       NFFT2 =   64       NFFT3 =   64
     Cutoff=   10.000   Tol   =0.100E-04
     Ewald Coefficient =  0.27511
     Interpolation order =    4
     TI Mask 1 :1; matches     12 atoms
     TI Mask 2 :2; matches     12 atoms
     TI region 1:      12 atoms
     TI region 2:      12 atoms
Removing charge of      -0.6664 from atom      13
Removing charge of      -0.6664 from atom      14
Removing charge of      -0.0664 from atom      15
Removing charge of      -0.0664 from atom      16
Removing charge of       0.2792 from atom      17
Removing charge of       0.2802 from atom      18
Removing charge of       0.2802 from atom      19
Removing charge of       0.2792 from atom      20
Removing charge of       0.0898 from atom      21
Removing charge of       0.0837 from atom      22
Removing charge of       0.0898 from atom      23
Removing charge of       0.0837 from atom      24
Total charge of  -0.00000000 removed from      12 atoms
     Checking for mismatched coordinates.

--------------------------------------------------------------------------------
   3.  ATOMIC COORDINATES AND VELOCITIES
--------------------------------------------------------------------------------

default_name
 begin time read from input coords =     0.000 ps

 Number of triangulated 3-point waters found:        0

     Sum of charges for TI region  1 =  -0.00000000
     Skip neutralizing charges...

     Sum of charges for TI region  2 =   0.00000000
     Skip neutralizing charges...

--------------------------------------------------------------------------------
   4.  RESULTS
 NSTEP =        0   TIME(PS) =       0.000  TEMP(K) =   408.18  PRESS =     0.0
 Etot   = **************  EKtot   =        14.6003  EPtot      = **************
 BOND   =      6545.8479  ANGLE   =       913.0708  DIHED      =         5.1631
 1-4 NB = **************  1-4 EEL =        -8.1583  VDWAALS    =        51.2559
 EELEC  =       -38.1600  EHBOND  =         0.0000  RESTRAINT  =         0.0000
 DV/DL  =        52.3400
 ------------------------------------------------------------------------------

      A V E R A G E S   O V E R    1000 S T E P S

 NSTEP =     1000   TIME(PS) =       1.000  TEMP(K) =*********  PRESS =     0.0
 Etot   = **************  EKtot   = **************  EPtot      = 445137123.9257
 BOND   = 436556108.4151  ANGLE   =      1715.7743  DIHED      =         6.3262
 1-4 NB =   8578313.2499  1-4 EEL =         3.0457  VDWAALS    =       981.0311
 EELEC  =        -3.9167  EHBOND  =         0.0000  RESTRAINT  =         0.0000
 DV/DL  =      -161.7621
 ------------------------------------------------------------------------------

      R M S  F L U C T U A T I O N S

 NSTEP =     1000   TIME(PS) =       1.000  TEMP(K) =*********  PRESS =     0.0
 Etot   = **************  EKtot   = **************  EPtot      = **************
 BOND   = **************  ANGLE   =       399.8870  DIHED      =         1.5383
 1-4 NB = 271132180.0820  1-4 EEL =         7.2722  VDWAALS    =     31004.9987
 EELEC  =         7.1072  EHBOND  =         0.0000  RESTRAINT  =         0.0000
 DV/DL  =      2618.5527
 ------------------------------------------------------------------------------

      A V E R A G E S   O V E R    1000 S T E P S

 NSTEP =     1000   TIME(PS) =       1.000  TEMP(K) =*********  PRESS =     0.0
 Etot   = **************  EKtot   = **************  EPtot      = 445137123.9257
 BOND   = 436556108.4151  ANGLE   =      1715.7743  DIHED      =         6.3262
 1-4 NB =   8578313.2499  1-4 EEL =         3.0457  VDWAALS    =       981.0311
 EELEC  =        -3.9167  EHBOND  =         0.0000  RESTRAINT  =         0.0000
 DV/DL  =      -161.7621
 ------------------------------------------------------------------------------

      R M S  F L U C T U A T I O N S

 NSTEP =     1000   TIME(PS) =       1.000  TEMP(K) =*********  PRESS =     0.0
 Etot   = **************  EKtot   = **************  EPtot      = **************
 BOND   = **************  ANGLE   =       399.8870  DIHED      =         1.5383
 1-4 NB = 271132180.0820  1-4 EEL =         7.2722  VDWAALS    =     31004.9987
 EELEC  =         7.1072  EHBOND  =         0.0000  RESTRAINT  =         0.0000
 DV/DL  =      2618.5527
 ------------------------------------------------------------------------------

      DV/DL, AVERAGES OVER    1000 STEPS

 NSTEP =     1000   TIME(PS) =       1.000  TEMP(K) =*********  PRESS =     0.0
 Etot   =         0.0000  EKtot   =         0.0000  EPtot      =      -161.7621
 BOND   =      -114.4939  ANGLE   =         0.0002  DIHED      =         0.0000
 1-4 NB =         4.0148  1-4 EEL =        -3.4417  VDWAALS    =       -52.2675
 EELEC  =         4.4259  EHBOND  =         0.0000  RESTRAINT  =         0.0000
 DV/DL  =      -161.7621
 ------------------------------------------------------------------------------

      A V E R A G E S   O V E R    1000 S T E P S

 NSTEP =     2000   TIME(PS) =       2.000  TEMP(K) =*********  PRESS =     0.0
 Etot   = **************  EKtot   = **************  EPtot      = **************
 BOND   = **************  ANGLE   =       853.1678  DIHED      =         5.2405
 1-4 NB =        -0.0000  1-4 EEL =         0.1284  VDWAALS    =         0.4004
 EELEC  =        -4.4308  EHBOND  =         0.0000  RESTRAINT  =         0.0000
 DV/DL  =      -151.6919
 ------------------------------------------------------------------------------

      R M S  F L U C T U A T I O N S

 NSTEP =     2000   TIME(PS) =       2.000  TEMP(K) =*********  PRESS =     0.0
 Etot   = **************  EKtot   = **************  EPtot      = **************
 BOND   = **************  ANGLE   =       202.8112  DIHED      =         1.1855
 1-4 NB =         0.0000  1-4 EEL =         0.1910  VDWAALS    =        12.6635
 EELEC  =         2.9034  EHBOND  =         0.0000  RESTRAINT  =         0.0000
 DV/DL  =      3563.6471
 ------------------------------------------------------------------------------

      A V E R A G E S   O V E R    1000 S T E P S

 NSTEP =     2000   TIME(PS) =       2.000  TEMP(K) =*********  PRESS =     0.0
 Etot   = **************  EKtot   = **************  EPtot      = **************
 BOND   = **************  ANGLE   =       853.1678  DIHED      =         5.2405
 1-4 NB =        -0.0000  1-4 EEL =         0.1284  VDWAALS    =         0.4004
 EELEC  =        -4.4308  EHBOND  =         0.0000  RESTRAINT  =         0.0000
 DV/DL  =      -151.6919
 ------------------------------------------------------------------------------

      R M S  F L U C T U A T I O N S

 NSTEP =     2000   TIME(PS) =       2.000  TEMP(K) =*********  PRESS =     0.0
 Etot   = **************  EKtot   = **************  EPtot      = **************
 BOND   = **************  ANGLE   =       202.8112  DIHED      =         1.1855
 1-4 NB =         0.0000  1-4 EEL =         0.1910  VDWAALS    =        12.6635
 EELEC  =         2.9034  EHBOND  =         0.0000  RESTRAINT  =         0.0000
 DV/DL  =      3563.6471
 ------------------------------------------------------------------------------

      DV/DL, AVERAGES OVER    1000 STEPS

 NSTEP =     2000   TIME(PS) =       2.000  TEMP(K) =*********  PRESS =     0.0
 Etot   =         0.0000  EKtot   =         0.0000  EPtot      =      -151.6919
 BOND   =      -156.5690  ANGLE   =        -0.0000  DIHED      =         0.0000
 1-4 NB =         0.0000  1-4 EEL =        -0.1451  VDWAALS    =         0.0154
 EELEC  =         5.0068  EHBOND  =         0.0000  RESTRAINT  =         0.0000
 DV/DL  =      -151.6919
 ------------------------------------------------------------------------------

      A V E R A G E S   O V E R    1000 S T E P S

 NSTEP =  1000000   TIME(PS) =    1000.000  TEMP(K) =*********  PRESS =     0.0
 Etot   = **************  EKtot   = **************  EPtot      = **************
 BOND   = **************  ANGLE   =         0.2130  DIHED      =         9.9905
 1-4 NB =         0.0000  1-4 EEL =         0.0000  VDWAALS    = **************
 EELEC  = **************  EHBOND  =         0.0000  RESTRAINT  =         0.0000
 DV/DL  = **************
 ------------------------------------------------------------------------------

      R M S  F L U C T U A T I O N S

 NSTEP =  1000000   TIME(PS) =    1000.000  TEMP(K) =*********  PRESS =     0.0
 Etot   = **************  EKtot   = **************  EPtot      = **************
 BOND   =         0.0000  ANGLE   =         0.0409  DIHED      =         0.0040
 1-4 NB =         0.0000  1-4 EEL =         0.0000  VDWAALS    = **************
 EELEC  = **************  EHBOND  =         0.0000  RESTRAINT  =         0.0000
 DV/DL  = **************
 ------------------------------------------------------------------------------

      A V E R A G E S   O V E R    1000 S T E P S

 NSTEP =  1000000   TIME(PS) =    1000.000  TEMP(K) =*********  PRESS =     0.0
 Etot   = **************  EKtot   = **************  EPtot      = **************
 BOND   = **************  ANGLE   =         0.2130  DIHED      =         9.9905
 1-4 NB =         0.0000  1-4 EEL =         0.0000  VDWAALS    = **************
 EELEC  = **************  EHBOND  =         0.0000  RESTRAINT  =         0.0000
 DV/DL  = **************
 ------------------------------------------------------------------------------

      R M S  F L U C T U A T I O N S

 NSTEP =  1000000   TIME(PS) =    1000.000  TEMP(K) =*********  PRESS =     0.0
 Etot   = **************  EKtot   = **************  EPtot      = **************
 BOND   =         0.0000  ANGLE   =         0.0409  DIHED      =         0.0040
 1-4 NB =         0.0000  1-4 EEL =         0.0000  VDWAALS    = **************
 EELEC  = **************  EHBOND  =         0.0000  RESTRAINT  =         0.0000
 DV/DL  = **************
 ------------------------------------------------------------------------------

      DV/DL, AVERAGES OVER    1000 STEPS

 NSTEP =  1000000   TIME(PS) =    1000.000  TEMP(K) =*********  PRESS =     0.0
 Etot   =         0.0000  EKtot   =         0.0000  EPtot      = **************
 BOND   =         0.0000  ANGLE   =         0.0000  DIHED      =         0.0000
 1-4 NB =         0.0000  1-4 EEL =        -0.0000  VDWAALS    =   8589934.5920
 EELEC  = **************  EHBOND  =         0.0000  RESTRAINT  =         0.0000
 DV/DL  = **************
 ------------------------------------------------------------------------------

      A V E R A G E S   O V E R 1000000 S T E P S

 NSTEP =  1000000   TIME(PS) =    1000.000  TEMP(K) =*********  PRESS =     0.0
 Etot   = **************  EKtot   = **************  EPtot      = **************
 BOND   = **************  ANGLE   =       154.4620  DIHED      =         9.5252
 1-4 NB =      8966.5394  1-4 EEL =         0.0993  VDWAALS    = **************
 EELEC  = **************  EHBOND  =         0.0000  RESTRAINT  =         0.0000
 DV/DL  = **************
 ------------------------------------------------------------------------------

      R M S  F L U C T U A T I O N S

 NSTEP =  1000000   TIME(PS) =    1000.000  TEMP(K) =*********  PRESS =     0.0
 Etot   = **************  EKtot   = **************  EPtot      = **************
 BOND   = **************  ANGLE   =       542.2038  DIHED      =         1.2970
 1-4 NB =  14077169.4304  1-4 EEL =         1.1907  VDWAALS    = **************
 EELEC  = **************  EHBOND  =         0.0000  RESTRAINT  =         0.0000
 DV/DL  = **************
 ------------------------------------------------------------------------------

      A V E R A G E S   O V E R 1000000 S T E P S

 NSTEP =  1000000   TIME(PS) =    1000.000  TEMP(K) =*********  PRESS =     0.0
 Etot   = **************  EKtot   = **************  EPtot      = **************
 BOND   = **************  ANGLE   =       154.4620  DIHED      =         9.5252
 1-4 NB =      8966.5394  1-4 EEL =         0.0993  VDWAALS    = **************
 EELEC  = **************  EHBOND  =         0.0000  RESTRAINT  =         0.0000
 DV/DL  = **************
 ------------------------------------------------------------------------------

      R M S  F L U C T U A T I O N S

 NSTEP =  1000000   TIME(PS) =    1000.000  TEMP(K) =*********  PRESS =     0.0
 Etot   = **************  EKtot   = **************  EPtot      = **************
 BOND   = **************  ANGLE   =       542.2038  DIHED      =         1.2970
 1-4 NB =  14077169.4304  1-4 EEL =         1.1907  VDWAALS    = **************
 EELEC  = **************  EHBOND  =         0.0000  RESTRAINT  =         0.0000
 DV/DL  = **************
 ------------------------------------------------------------------------------

      DV/DL, AVERAGES OVER 1000000 STEPS

 NSTEP =  1000000   TIME(PS) =    1000.000  TEMP(K) =*********  PRESS =     0.0
 Etot   =         0.0000  EKtot   =         0.0000  EPtot      = **************
 BOND   =        -0.2684  ANGLE   =        -0.0000  DIHED      =         0.0000
 1-4 NB =        21.5667  1-4 EEL =        -0.1122  VDWAALS    =    375416.6446
 EELEC  = **************  EHBOND  =         0.0000  RESTRAINT  =         0.0000
 DV/DL  = **************
 ------------------------------------------------------------------------------
