-------------------------------------------------------
          Amber 20 PMEMD                              2020
          -------------------------------------------------------

  [-O]verwriting output

File Assignments:

 Here is the input file:

 &cntrl
   nstlim=500000, nscm=1000,
   ntx=5, irest=1, ntpr=1000,
   tempi=300.0, temp0=300.0, ntt=3, gamma_ln=2.0,
   ntp=1, pres0=1.01325, taup=5.0,
   ntb=2, igb=0, cut=10.0,
   dt=0.002, ig=-1,
   ntc=2, ntf=2,
   iwrap=0,
   ntwr=1000, ntwx=50000, ntave=1000,
   ioutfm=1, ntwv=-1,
   ifsc = 0, icfe=1,
   clambda=0.43738,
   timask1=':1',
   timask2=':2', crgmask = ':2',
/

Note: ig = -1. Setting random seed to   893587 based on wallclock time in
      microseconds.

--------------------------------------------------------------------------------
   1.  RESOURCE   USE:
--------------------------------------------------------------------------------

 getting box info from netcdf restart file
 NATOM  =   20967 NTYPES =       6 NBONH =   20959 MBONA  =       6
 NTHETH =      32 MTHETA =       4 NPHIH =      40 MPHIA  =       2
 NHPARM =       0 NPARM  =       0 NNB   =   28026 NRES   =    6983
 NBONA  =       6 NTHETA =       4 NPHIA =       2 NUMBND =       6
 NUMANG =       6 NPTRA  =       2 NATYP =       6 NPHB   =       1
 IFBOX  =       2 NMXRS  =      12 IFCAP =       0 NEXTRA =       0
 NCOPY  =       0

     BOX TYPE: TRUNCATED OCTAHEDRON

--------------------------------------------------------------------------------
   2.  CONTROL  DATA  FOR  THE  RUN
--------------------------------------------------------------------------------

default_name

General flags:
     imin    =       0, nmropt  =       0

Nature and format of input:
     ntx     =       5, irest   =       1, ntrx    =       1

Nature and format of output:
     ntxo    =       2, ntpr    =    1000, ntrx    =       1, ntwr    =    1000
     iwrap   =       0, ntwx    =   50000, ntwv    =      -1, ntwe    =       0
     ioutfm  =       1, ntwprt  =       0, idecomp =       0, rbornstat=      0

Potential function:
     ntf     =       2, ntb     =       2, igb     =       0, nsnb    =      25
     ipol    =       0, gbsa    =       0, iesp    =       0
     dielc   =   1.00000, cut     =  10.00000, intdiel =   1.00000

Frozen or restrained atoms:
     ibelly  =       0, ntr     =       0

Molecular dynamics:
     nstlim  =    500000, nscm    =      1000, nrespa  =         1
     t       =   0.00000, dt      =   0.00200, vlimit  =  -1.00000

Langevin dynamics temperature regulation:
     ig      =  893587
     temp0   = 300.00000, tempi   = 300.00000, gamma_ln=   2.00000

Pressure regulation:
     ntp     =       1
     pres0   =   1.01325, comp    =  44.60000, taup    =   5.00000

SHAKE:
     ntc     =       2, jfastw  =       0
     tol     =   0.00001

Free energy options:
     icfe    =       1, ifsc    =       0, klambda =       1
     clambda =  0.4374, scalpha =  0.5000, scbeta  = 12.0000
     sceeorder =       2
     dynlmb =  0.0000 logdvdl =       0

Ewald parameters:
     verbose =       0, ew_type =       0, nbflag  =       1, use_pme =       1
     vdwmeth =       1, eedmeth =       1, netfrc  =       1
     Box X =   67.054   Box Y =   67.054   Box Z =   67.054
     Alpha =  109.471   Beta  =  109.471   Gamma =  109.471
     NFFT1 =   64       NFFT2 =   64       NFFT3 =   64
     Cutoff=   10.000   Tol   =0.100E-04
     Ewald Coefficient =  0.27511
     Interpolation order =    4
     TI Mask 1 :1; matches     12 atoms
     TI Mask 2 :2; matches     12 atoms
     TI region 1:   20955 atoms
     TI region 2:   20955 atoms
Removing charge of      -0.6664 from atom      13
Removing charge of      -0.6664 from atom      14
Removing charge of      -0.0664 from atom      15
Removing charge of      -0.0664 from atom      16
Removing charge of       0.2792 from atom      17
Removing charge of       0.2802 from atom      18
Removing charge of       0.2802 from atom      19
Removing charge of       0.2792 from atom      20
Removing charge of       0.0898 from atom      21
Removing charge of       0.0837 from atom      22
Removing charge of       0.0898 from atom      23
Removing charge of       0.0837 from atom      24
Total charge of  -0.00000000 removed from      12 atoms
     Checking for mismatched coordinates.

--------------------------------------------------------------------------------
   3.  ATOMIC COORDINATES AND VELOCITIES
--------------------------------------------------------------------------------

default_name
 begin time read from input coords =   200.000 ps

 Number of triangulated 3-point waters found:     6981

     Sum of charges for TI region  1 =  -0.00000000
     Skip neutralizing charges...

     Sum of charges for TI region  2 =   0.00000000
     Skip neutralizing charges...

--------------------------------------------------------------------------------
   4.  RESULTS
 NSTEP =     1000   TIME(PS) =     202.000  TEMP(K) =   301.92  PRESS =  -659.8
 Etot   =    -53056.2364  EKtot   =     12573.7216  EPtot      =    -65629.9580
 BOND   =         0.9818  ANGLE   =         4.6099  DIHED      =         0.5946
 1-4 NB =         0.2316  1-4 EEL =        15.6912  VDWAALS    =      9640.7604
 EELEC  =    -75292.8274  EHBOND  =         0.0000  RESTRAINT  =         0.0000
 EKCMT  =      6309.8668  VIRIAL  =      9577.6793  VOLUME     =    229386.2898
                                                    Density    =         0.9109
 DV/DL  =        -8.7615
 ------------------------------------------------------------------------------

      A V E R A G E S   O V E R    1000 S T E P S

 NSTEP =     1000   TIME(PS) =     202.000  TEMP(K) =   301.11  PRESS =  -654.9
 Etot   =    -52992.1097  EKtot   =     12539.8206  EPtot      =    -65531.9302
 BOND   =         0.9237  ANGLE   =         5.1897  DIHED      =         1.0940
 1-4 NB =         0.2045  1-4 EEL =        15.7516  VDWAALS    =      9676.5785
 EELEC  =    -75231.6723  EHBOND  =         0.0000  RESTRAINT  =         0.0000
 EKCMT  =      6281.0534  VIRIAL  =      9543.7985  VOLUME     =    230655.5134
                                                    Density    =         0.9059
 DV/DL  =        -6.1392
 ------------------------------------------------------------------------------

      R M S  F L U C T U A T I O N S

 NSTEP =     1000   TIME(PS) =     202.000  TEMP(K) =     1.75  PRESS =   117.7
 Etot   =        63.2759  EKtot   =        72.7068  EPtot      =        89.3125
 BOND   =         0.7452  ANGLE   =         1.7559  DIHED      =         0.6858
 1-4 NB =         0.2409  1-4 EEL =         0.4003  VDWAALS    =       114.8300
 EELEC  =       174.3575  EHBOND  =         0.0000  RESTRAINT  =         0.0000
 EKCMT  =        59.8808  VIRIAL  =       582.0214  VOLUME     =       755.3199
                                                    Density    =         0.0030
 DV/DL  =         2.8009
 ------------------------------------------------------------------------------

      A V E R A G E S   O V E R    1000 S T E P S

 NSTEP =     1000   TIME(PS) =     202.000  TEMP(K) =   301.11  PRESS =  -654.9
 Etot   =    -52992.1097  EKtot   =     12539.8206  EPtot      =    -65531.9302
 BOND   =         0.9237  ANGLE   =         5.1897  DIHED      =         1.0940
 1-4 NB =         0.2045  1-4 EEL =        15.7516  VDWAALS    =      9676.5785
 EELEC  =    -75231.6723  EHBOND  =         0.0000  RESTRAINT  =         0.0000
 EKCMT  =      6281.0534  VIRIAL  =      9543.7985  VOLUME     =    230655.5134
                                                    Density    =         0.9059
 DV/DL  =        -6.1392
 ------------------------------------------------------------------------------

      R M S  F L U C T U A T I O N S

 NSTEP =     1000   TIME(PS) =     202.000  TEMP(K) =     1.75  PRESS =   117.7
 Etot   =        63.2759  EKtot   =        72.7068  EPtot      =        89.3125
 BOND   =         0.7452  ANGLE   =         1.7559  DIHED      =         0.6858
 1-4 NB =         0.2409  1-4 EEL =         0.4003  VDWAALS    =       114.8300
 EELEC  =       174.3575  EHBOND  =         0.0000  RESTRAINT  =         0.0000
 EKCMT  =        59.8808  VIRIAL  =       582.0214  VOLUME     =       755.3199
                                                    Density    =         0.0030
 DV/DL  =         2.8009
 ------------------------------------------------------------------------------

      DV/DL, AVERAGES OVER    1000 STEPS

 NSTEP =     1000   TIME(PS) =     202.000  TEMP(K) =     1.75  PRESS =     0.0
 Etot   =         0.0000  EKtot   =         0.0000  EPtot      =        -6.1392
 BOND   =         0.0000  ANGLE   =         0.0000  DIHED      =         0.0000
 1-4 NB =         0.0000  1-4 EEL =       -27.9969  VDWAALS    =         0.0000
 EELEC  =        21.8577  EHBOND  =         0.0000  RESTRAINT  =         0.0000
 EKCMT  =         0.0000  VIRIAL  =         0.0000  VOLUME     =         0.0000
                                                    Density    =         0.0000
 DV/DL  =        -6.1392
 ------------------------------------------------------------------------------

      A V E R A G E S   O V E R    1000 S T E P S

 NSTEP =     2000   TIME(PS) =     204.000  TEMP(K) =   300.17  PRESS =  -539.9
 Etot   =    -53278.0799  EKtot   =     12500.7304  EPtot      =    -65778.8104
 BOND   =         0.8258  ANGLE   =         4.7782  DIHED      =         0.9841
 1-4 NB =         0.2352  1-4 EEL =        15.7896  VDWAALS    =      9757.2111
 EELEC  =    -75558.6343  EHBOND  =         0.0000  RESTRAINT  =         0.0000
 EKCMT  =      6260.0784  VIRIAL  =      8921.0067  VOLUME     =    228264.3248
                                                    Density    =         0.9154
 DV/DL  =        -6.7708
 ------------------------------------------------------------------------------

      R M S  F L U C T U A T I O N S

 NSTEP =     2000   TIME(PS) =     204.000  TEMP(K) =     1.95  PRESS =   120.3
 Etot   =       117.4484  EKtot   =        81.0216  EPtot      =       106.9519
 BOND   =         0.6258  ANGLE   =         1.6599  DIHED      =         0.6052
 1-4 NB =         0.2506  1-4 EEL =         0.4393  VDWAALS    =       123.4981
 EELEC  =       177.1111  EHBOND  =         0.0000  RESTRAINT  =         0.0000
 EKCMT  =        63.4103  VIRIAL  =       603.4536  VOLUME     =       623.2824
                                                    Density    =         0.0025
 DV/DL  =         2.9870
 ------------------------------------------------------------------------------

      A V E R A G E S   O V E R    1000 S T E P S

 NSTEP =     2000   TIME(PS) =     204.000  TEMP(K) =   300.17  PRESS =  -539.9
 Etot   =    -53278.0799  EKtot   =     12500.7304  EPtot      =    -65778.8104
 BOND   =         0.8258  ANGLE   =         4.7782  DIHED      =         0.9841
 1-4 NB =         0.2352  1-4 EEL =        15.7896  VDWAALS    =      9757.2111
 EELEC  =    -75558.6343  EHBOND  =         0.0000  RESTRAINT  =         0.0000
 EKCMT  =      6260.0784  VIRIAL  =      8921.0067  VOLUME     =    228264.3248
                                                    Density    =         0.9154
 DV/DL  =        -6.7708
 ------------------------------------------------------------------------------

      R M S  F L U C T U A T I O N S

 NSTEP =     2000   TIME(PS) =     204.000  TEMP(K) =     1.95  PRESS =   120.3
 Etot   =       117.4484  EKtot   =        81.0216  EPtot      =       106.9519
 BOND   =         0.6258  ANGLE   =         1.6599  DIHED      =         0.6052
 1-4 NB =         0.2506  1-4 EEL =         0.4393  VDWAALS    =       123.4981
 EELEC  =       177.1111  EHBOND  =         0.0000  RESTRAINT  =         0.0000
 EKCMT  =        63.4103  VIRIAL  =       603.4536  VOLUME     =       623.2824
                                                    Density    =         0.0025
 DV/DL  =         2.9870
 ------------------------------------------------------------------------------

      DV/DL, AVERAGES OVER    1000 STEPS

 NSTEP =     2000   TIME(PS) =     204.000  TEMP(K) =     1.95  PRESS =     0.0
 Etot   =         0.0000  EKtot   =         0.0000  EPtot      =        -6.7708
 BOND   =         0.0000  ANGLE   =         0.0000  DIHED      =         0.0000
 1-4 NB =         0.0000  1-4 EEL =       -28.0644  VDWAALS    =         0.0000
 EELEC  =        21.2936  EHBOND  =         0.0000  RESTRAINT  =         0.0000
 EKCMT  =         0.0000  VIRIAL  =         0.0000  VOLUME     =         0.0000
                                                    Density    =         0.0000
 DV/DL  =        -6.7708
 ------------------------------------------------------------------------------

      A V E R A G E S   O V E R    1000 S T E P S

 NSTEP =   500000   TIME(PS) =    1200.000  TEMP(K) =   300.45  PRESS =    27.9
 Etot   =    -54016.8107  EKtot   =     12512.6071  EPtot      =    -66529.4178
 BOND   =         1.1380  ANGLE   =         5.6397  DIHED      =         1.1564
 1-4 NB =         0.2080  1-4 EEL =        16.3962  VDWAALS    =      9945.8908
 EELEC  =    -76499.8471  EHBOND  =         0.0000  RESTRAINT  =         0.0000
 EKCMT  =      6281.1598  VIRIAL  =      6153.0492  VOLUME     =    212509.2244
                                                    Density    =         0.9832
 DV/DL  =        -6.9956
 ------------------------------------------------------------------------------

      R M S  F L U C T U A T I O N S

 NSTEP =   500000   TIME(PS) =    1200.000  TEMP(K) =     1.65  PRESS =   118.8
 Etot   =        73.9908  EKtot   =        68.8099  EPtot      =        86.5362
 BOND   =         0.9876  ANGLE   =         2.0295  DIHED      =         0.6129
 1-4 NB =         0.2024  1-4 EEL =         0.4882  VDWAALS    =       112.7959
 EELEC  =       150.2293  EHBOND  =         0.0000  RESTRAINT  =         0.0000
 EKCMT  =        53.2598  VIRIAL  =       547.2506  VOLUME     =        33.4051
                                                    Density    =         0.0002
 DV/DL  =         3.5518
 ------------------------------------------------------------------------------

      A V E R A G E S   O V E R    1000 S T E P S

 NSTEP =   500000   TIME(PS) =    1200.000  TEMP(K) =   300.45  PRESS =    27.9
 Etot   =    -54016.8107  EKtot   =     12512.6071  EPtot      =    -66529.4178
 BOND   =         1.1380  ANGLE   =         5.6397  DIHED      =         1.1564
 1-4 NB =         0.2080  1-4 EEL =        16.3962  VDWAALS    =      9945.8908
 EELEC  =    -76499.8471  EHBOND  =         0.0000  RESTRAINT  =         0.0000
 EKCMT  =      6281.1598  VIRIAL  =      6153.0492  VOLUME     =    212509.2244
                                                    Density    =         0.9832
 DV/DL  =        -6.9956
 ------------------------------------------------------------------------------

      R M S  F L U C T U A T I O N S

 NSTEP =   500000   TIME(PS) =    1200.000  TEMP(K) =     1.65  PRESS =   118.8
 Etot   =        73.9908  EKtot   =        68.8099  EPtot      =        86.5362
 BOND   =         0.9876  ANGLE   =         2.0295  DIHED      =         0.6129
 1-4 NB =         0.2024  1-4 EEL =         0.4882  VDWAALS    =       112.7959
 EELEC  =       150.2293  EHBOND  =         0.0000  RESTRAINT  =         0.0000
 EKCMT  =        53.2598  VIRIAL  =       547.2506  VOLUME     =        33.4051
                                                    Density    =         0.0002
 DV/DL  =         3.5518
 ------------------------------------------------------------------------------

      DV/DL, AVERAGES OVER    1000 STEPS

 NSTEP =   500000   TIME(PS) =    1200.000  TEMP(K) =     1.65  PRESS =     0.0
 Etot   =         0.0000  EKtot   =         0.0000  EPtot      =        -6.9956
 BOND   =         0.0000  ANGLE   =         0.0000  DIHED      =         0.0000
 1-4 NB =         0.0000  1-4 EEL =       -29.1426  VDWAALS    =         0.0000
 EELEC  =        22.1470  EHBOND  =         0.0000  RESTRAINT  =         0.0000
 EKCMT  =         0.0000  VIRIAL  =         0.0000  VOLUME     =         0.0000
                                                    Density    =         0.0000
 DV/DL  =        -6.9956
 ------------------------------------------------------------------------------

      A V E R A G E S   O V E R  500000 S T E P S

 NSTEP =   500000   TIME(PS) =    1200.000  TEMP(K) =   299.98  PRESS =    -8.8
 Etot   =    -54087.9583  EKtot   =     12492.7036  EPtot      =    -66580.6619
 BOND   =         0.9216  ANGLE   =         4.8166  DIHED      =         1.0824
 1-4 NB =         0.4094  1-4 EEL =        19.5098  VDWAALS    =      9957.4107
 EELEC  =    -76564.8124  EHBOND  =         0.0000  RESTRAINT  =         0.0000
 EKCMT  =      6262.0470  VIRIAL  =      6304.6028  VOLUME     =    212771.0990
                                                    Density    =         0.9821
 DV/DL  =        -7.3851
 ------------------------------------------------------------------------------

      R M S  F L U C T U A T I O N S

 NSTEP =   500000   TIME(PS) =    1200.000  TEMP(K) =     2.07  PRESS =   142.0
 Etot   =       169.8747  EKtot   =        86.1313  EPtot      =       144.8537
 BOND   =         0.7516  ANGLE   =         1.6849  DIHED      =         0.7686
 1-4 NB =         0.4345  1-4 EEL =         3.6098  VDWAALS    =       125.5042
 EELEC  =       219.3934  EHBOND  =         0.0000  RESTRAINT  =         0.0000
 EKCMT  =        61.0309  VIRIAL  =       657.9760  VOLUME     =      1539.4541
                                                    Density    =         0.0067
 DV/DL  =         3.0863
 ------------------------------------------------------------------------------

      A V E R A G E S   O V E R  500000 S T E P S

 NSTEP =   500000   TIME(PS) =    1200.000  TEMP(K) =   299.98  PRESS =    -8.8
 Etot   =    -54087.9583  EKtot   =     12492.7036  EPtot      =    -66580.6619
 BOND   =         0.9216  ANGLE   =         4.8166  DIHED      =         1.0824
 1-4 NB =         0.4094  1-4 EEL =        19.5098  VDWAALS    =      9957.4107
 EELEC  =    -76564.8124  EHBOND  =         0.0000  RESTRAINT  =         0.0000
 EKCMT  =      6262.0470  VIRIAL  =      6304.6028  VOLUME     =    212771.0990
                                                    Density    =         0.9821
 DV/DL  =        -7.3851
 ------------------------------------------------------------------------------

      R M S  F L U C T U A T I O N S

 NSTEP =   500000   TIME(PS) =    1200.000  TEMP(K) =     2.07  PRESS =   142.0
 Etot   =       169.8747  EKtot   =        86.1313  EPtot      =       144.8537
 BOND   =         0.7516  ANGLE   =         1.6849  DIHED      =         0.7686
 1-4 NB =         0.4345  1-4 EEL =         3.6098  VDWAALS    =       125.5042
 EELEC  =       219.3934  EHBOND  =         0.0000  RESTRAINT  =         0.0000
 EKCMT  =        61.0309  VIRIAL  =       657.9760  VOLUME     =      1539.4541
                                                    Density    =         0.0067
 DV/DL  =         3.0863
 ------------------------------------------------------------------------------

      DV/DL, AVERAGES OVER  500000 STEPS

 NSTEP =   500000   TIME(PS) =    1200.000  TEMP(K) =     2.07  PRESS =     0.0
 Etot   =         0.0000  EKtot   =         0.0000  EPtot      =        -7.3851
 BOND   =         0.0000  ANGLE   =         0.0000  DIHED      =         0.0000
 1-4 NB =         0.0000  1-4 EEL =       -34.6766  VDWAALS    =         0.0000
 EELEC  =        27.2915  EHBOND  =         0.0000  RESTRAINT  =         0.0000
 EKCMT  =         0.0000  VIRIAL  =         0.0000  VOLUME     =         0.0000
                                                    Density    =         0.0000
 DV/DL  =        -7.3851
 ------------------------------------------------------------------------------
