-------------------------------------------------------
          Amber 20 PMEMD                              2020
          -------------------------------------------------------

  [-O]verwriting output

File Assignments:

 Here is the input file:

 &cntrl
   nstlim=1000000, nscm=1000,
   ntx=1, irest=0, ntpr=1000,
   tempi=300.0, temp0=300.0, ntt=3, gamma_ln=2.0,
   ntb=1, igb=0, cut=10.0,
   dt=0.001, ig=-1,
   ntc=1, ntf=1,
   iwrap=0,
   ntwr=1000, ntwx=50000, ntave=1000,
   ioutfm=1, ntwv=-1,
   ifsc = 0, icfe=1,
   clambda=0.88495,
   timask1=':1',
   timask2=':2', crgmask = ':2',
/

Note: ig = -1. Setting random seed to   200092 based on wallclock time in
      microseconds.

--------------------------------------------------------------------------------
   1.  RESOURCE   USE:
--------------------------------------------------------------------------------

 getting box info from netcdf restart file
 NATOM  =      24 NTYPES =       6 NBONH =      16 MBONA  =       6
 NTHETH =      32 MTHETA =       4 NPHIH =      40 MPHIA  =       2
 NHPARM =       0 NPARM  =       0 NNB   =     102 NRES   =       2
 NBONA  =       6 NTHETA =       4 NPHIA =       2 NUMBND =       4
 NUMANG =       6 NPTRA  =       2 NATYP =       6 NPHB   =       1
 IFBOX  =       2 NMXRS  =      12 IFCAP =       0 NEXTRA =       0
 NCOPY  =       0

     BOX TYPE: TRUNCATED OCTAHEDRON

--------------------------------------------------------------------------------
   2.  CONTROL  DATA  FOR  THE  RUN
--------------------------------------------------------------------------------

default_name

General flags:
     imin    =       0, nmropt  =       0

Nature and format of input:
     ntx     =       1, irest   =       0, ntrx    =       1

Nature and format of output:
     ntxo    =       2, ntpr    =    1000, ntrx    =       1, ntwr    =    1000
     iwrap   =       0, ntwx    =   50000, ntwv    =      -1, ntwe    =       0
     ioutfm  =       1, ntwprt  =       0, idecomp =       0, rbornstat=      0

Potential function:
     ntf     =       1, ntb     =       1, igb     =       0, nsnb    =      25
     ipol    =       0, gbsa    =       0, iesp    =       0
     dielc   =   1.00000, cut     =  10.00000, intdiel =   1.00000

Frozen or restrained atoms:
     ibelly  =       0, ntr     =       0

Molecular dynamics:
     nstlim  =   1000000, nscm    =      1000, nrespa  =         1
     t       =   0.00000, dt      =   0.00100, vlimit  =  -1.00000

Langevin dynamics temperature regulation:
     ig      =  200092
     temp0   = 300.00000, tempi   = 300.00000, gamma_ln=   2.00000

Free energy options:
     icfe    =       1, ifsc    =       0, klambda =       1
     clambda =  0.8850, scalpha =  0.5000, scbeta  = 12.0000
     sceeorder =       2
     dynlmb =  0.0000 logdvdl =       0

Ewald parameters:
     verbose =       0, ew_type =       0, nbflag  =       1, use_pme =       1
     vdwmeth =       1, eedmeth =       1, netfrc  =       1
     Box X =   67.054   Box Y =   67.054   Box Z =   67.054
     Alpha =  109.471   Beta  =  109.471   Gamma =  109.471
     NFFT1 =   64       NFFT2 =   64       NFFT3 =   64
     Cutoff=   10.000   Tol   =0.100E-04
     Ewald Coefficient =  0.27511
     Interpolation order =    4
     TI Mask 1 :1; matches     12 atoms
     TI Mask 2 :2; matches     12 atoms
     TI region 1:      12 atoms
     TI region 2:      12 atoms
Removing charge of      -0.6664 from atom      13
Removing charge of      -0.6664 from atom      14
Removing charge of      -0.0664 from atom      15
Removing charge of      -0.0664 from atom      16
Removing charge of       0.2792 from atom      17
Removing charge of       0.2802 from atom      18
Removing charge of       0.2802 from atom      19
Removing charge of       0.2792 from atom      20
Removing charge of       0.0898 from atom      21
Removing charge of       0.0837 from atom      22
Removing charge of       0.0898 from atom      23
Removing charge of       0.0837 from atom      24
Total charge of  -0.00000000 removed from      12 atoms
     Checking for mismatched coordinates.

--------------------------------------------------------------------------------
   3.  ATOMIC COORDINATES AND VELOCITIES
--------------------------------------------------------------------------------

default_name
 begin time read from input coords =     0.000 ps

 Number of triangulated 3-point waters found:        0

     Sum of charges for TI region  1 =  -0.00000000
     Skip neutralizing charges...

     Sum of charges for TI region  2 =   0.00000000
     Skip neutralizing charges...

--------------------------------------------------------------------------------
   4.  RESULTS
 NSTEP =        0   TIME(PS) =       0.000  TEMP(K) =   431.07  PRESS =     0.0
 Etot   =        17.3555  EKtot   =        15.4192  EPtot      =         1.9363
 BOND   =         0.0119  ANGLE   =         0.0574  DIHED      =         0.0625
 1-4 NB =         0.2888  1-4 EEL =         4.6916  VDWAALS    =        -0.0797
 EELEC  =        -3.0963  EHBOND  =         0.0000  RESTRAINT  =         0.0000
 DV/DL  =       -13.8664
 ------------------------------------------------------------------------------

      A V E R A G E S   O V E R    1000 S T E P S

 NSTEP =     1000   TIME(PS) =       1.000  TEMP(K) =   325.78  PRESS =     0.0
 Etot   =        25.0231  EKtot   =        11.6530  EPtot      =        13.3700
 BOND   =         5.5310  ANGLE   =         5.1905  DIHED      =         0.7770
 1-4 NB =         0.3539  1-4 EEL =         4.6727  VDWAALS    =        -0.0787
 EELEC  =        -3.0763  EHBOND  =         0.0000  RESTRAINT  =         0.0000
 DV/DL  =       -13.8784
 ------------------------------------------------------------------------------

      R M S  F L U C T U A T I O N S

 NSTEP =     1000   TIME(PS) =       1.000  TEMP(K) =    84.58  PRESS =     0.0
 Etot   =         3.9764  EKtot   =         3.0254  EPtot      =         3.2324
 BOND   =         2.9906  ANGLE   =         1.6030  DIHED      =         0.5607
 1-4 NB =         0.2491  1-4 EEL =         0.1368  VDWAALS    =         0.0114
 EELEC  =         0.1605  EHBOND  =         0.0000  RESTRAINT  =         0.0000
 DV/DL  =         0.8031
 ------------------------------------------------------------------------------

      A V E R A G E S   O V E R    1000 S T E P S

 NSTEP =     1000   TIME(PS) =       1.000  TEMP(K) =   325.76  PRESS =     0.0
 Etot   =        25.0222  EKtot   =        11.6522  EPtot      =        13.3700
 BOND   =         5.5310  ANGLE   =         5.1905  DIHED      =         0.7770
 1-4 NB =         0.3539  1-4 EEL =         4.6727  VDWAALS    =        -0.0787
 EELEC  =        -3.0763  EHBOND  =         0.0000  RESTRAINT  =         0.0000
 DV/DL  =       -13.8784
 ------------------------------------------------------------------------------

      R M S  F L U C T U A T I O N S

 NSTEP =     1000   TIME(PS) =       1.000  TEMP(K) =    84.51  PRESS =     0.0
 Etot   =         3.9764  EKtot   =         3.0228  EPtot      =         3.2324
 BOND   =         2.9906  ANGLE   =         1.6030  DIHED      =         0.5607
 1-4 NB =         0.2491  1-4 EEL =         0.1368  VDWAALS    =         0.0114
 EELEC  =         0.1605  EHBOND  =         0.0000  RESTRAINT  =         0.0000
 DV/DL  =         0.8031
 ------------------------------------------------------------------------------

      DV/DL, AVERAGES OVER    1000 STEPS

 NSTEP =     1000   TIME(PS) =       1.000  TEMP(K) =    84.51  PRESS =     0.0
 Etot   =         0.0000  EKtot   =         0.0000  EPtot      =       -13.8784
 BOND   =        -0.0028  ANGLE   =        -0.0004  DIHED      =         0.0001
 1-4 NB =         0.0001  1-4 EEL =       -40.6143  VDWAALS    =        -0.0000
 EELEC  =        26.7389  EHBOND  =         0.0000  RESTRAINT  =         0.0000
 DV/DL  =       -13.8784
 ------------------------------------------------------------------------------

      A V E R A G E S   O V E R    1000 S T E P S

 NSTEP =     2000   TIME(PS) =       2.000  TEMP(K) =   391.94  PRESS =     0.0
 Etot   =        28.3228  EKtot   =        14.0194  EPtot      =        14.3034
 BOND   =         5.7915  ANGLE   =         5.8037  DIHED      =         0.7677
 1-4 NB =         0.4193  1-4 EEL =         4.6907  VDWAALS    =        -0.0795
 EELEC  =        -3.0901  EHBOND  =         0.0000  RESTRAINT  =         0.0000
 DV/DL  =       -13.9171
 ------------------------------------------------------------------------------

      R M S  F L U C T U A T I O N S

 NSTEP =     2000   TIME(PS) =       2.000  TEMP(K) =    75.30  PRESS =     0.0
 Etot   =         1.8110  EKtot   =         2.6933  EPtot      =         2.8624
 BOND   =         2.5125  ANGLE   =         1.8466  DIHED      =         0.4485
 1-4 NB =         0.3941  1-4 EEL =         0.1914  VDWAALS    =         0.0134
 EELEC  =         0.1948  EHBOND  =         0.0000  RESTRAINT  =         0.0000
 DV/DL  =         0.7665
 ------------------------------------------------------------------------------

      A V E R A G E S   O V E R    1000 S T E P S

 NSTEP =     2000   TIME(PS) =       2.000  TEMP(K) =   391.95  PRESS =     0.0
 Etot   =        28.3233  EKtot   =        14.0198  EPtot      =        14.3034
 BOND   =         5.7915  ANGLE   =         5.8037  DIHED      =         0.7677
 1-4 NB =         0.4193  1-4 EEL =         4.6907  VDWAALS    =        -0.0795
 EELEC  =        -3.0901  EHBOND  =         0.0000  RESTRAINT  =         0.0000
 DV/DL  =       -13.9171
 ------------------------------------------------------------------------------

      R M S  F L U C T U A T I O N S

 NSTEP =     2000   TIME(PS) =       2.000  TEMP(K) =    75.41  PRESS =     0.0
 Etot   =         1.8171  EKtot   =         2.6972  EPtot      =         2.8624
 BOND   =         2.5125  ANGLE   =         1.8466  DIHED      =         0.4485
 1-4 NB =         0.3941  1-4 EEL =         0.1914  VDWAALS    =         0.0134
 EELEC  =         0.1948  EHBOND  =         0.0000  RESTRAINT  =         0.0000
 DV/DL  =         0.7665
 ------------------------------------------------------------------------------

      DV/DL, AVERAGES OVER    1000 STEPS

 NSTEP =     2000   TIME(PS) =       2.000  TEMP(K) =    75.41  PRESS =     0.0
 Etot   =         0.0000  EKtot   =         0.0000  EPtot      =       -13.9171
 BOND   =        -0.0048  ANGLE   =        -0.0000  DIHED      =         0.0002
 1-4 NB =        -0.0000  1-4 EEL =       -40.7713  VDWAALS    =         0.0000
 EELEC  =        26.8589  EHBOND  =         0.0000  RESTRAINT  =         0.0000
 DV/DL  =       -13.9171
 ------------------------------------------------------------------------------

      A V E R A G E S   O V E R    1000 S T E P S

 NSTEP =  1000000   TIME(PS) =    1000.000  TEMP(K) =   309.03  PRESS =     0.0
 Etot   =        22.5475  EKtot   =        11.0537  EPtot      =        11.4938
 BOND   =         4.1487  ANGLE   =         4.4887  DIHED      =         0.9527
 1-4 NB =         0.3776  1-4 EEL =         4.7056  VDWAALS    =        -0.0798
 EELEC  =        -3.0998  EHBOND  =         0.0000  RESTRAINT  =         0.0000
 DV/DL  =       -13.9601
 ------------------------------------------------------------------------------

      R M S  F L U C T U A T I O N S

 NSTEP =  1000000   TIME(PS) =    1000.000  TEMP(K) =    58.12  PRESS =     0.0
 Etot   =         2.2149  EKtot   =         2.0789  EPtot      =         2.0381
 BOND   =         1.5435  ANGLE   =         1.3554  DIHED      =         0.3971
 1-4 NB =         0.2677  1-4 EEL =         0.1722  VDWAALS    =         0.0101
 EELEC  =         0.1455  EHBOND  =         0.0000  RESTRAINT  =         0.0000
 DV/DL  =         0.6249
 ------------------------------------------------------------------------------

      A V E R A G E S   O V E R    1000 S T E P S

 NSTEP =  1000000   TIME(PS) =    1000.000  TEMP(K) =   309.16  PRESS =     0.0
 Etot   =        22.5521  EKtot   =        11.0583  EPtot      =        11.4938
 BOND   =         4.1487  ANGLE   =         4.4887  DIHED      =         0.9527
 1-4 NB =         0.3776  1-4 EEL =         4.7056  VDWAALS    =        -0.0798
 EELEC  =        -3.0998  EHBOND  =         0.0000  RESTRAINT  =         0.0000
 DV/DL  =       -13.9601
 ------------------------------------------------------------------------------

      R M S  F L U C T U A T I O N S

 NSTEP =  1000000   TIME(PS) =    1000.000  TEMP(K) =    58.04  PRESS =     0.0
 Etot   =         2.2192  EKtot   =         2.0762  EPtot      =         2.0381
 BOND   =         1.5435  ANGLE   =         1.3554  DIHED      =         0.3971
 1-4 NB =         0.2677  1-4 EEL =         0.1722  VDWAALS    =         0.0101
 EELEC  =         0.1455  EHBOND  =         0.0000  RESTRAINT  =         0.0000
 DV/DL  =         0.6249
 ------------------------------------------------------------------------------

      DV/DL, AVERAGES OVER    1000 STEPS

 NSTEP =  1000000   TIME(PS) =    1000.000  TEMP(K) =    58.04  PRESS =     0.0
 Etot   =         0.0000  EKtot   =         0.0000  EPtot      =       -13.9601
 BOND   =        -0.0012  ANGLE   =        -0.0010  DIHED      =         0.0001
 1-4 NB =        -0.0001  1-4 EEL =       -40.9006  VDWAALS    =         0.0000
 EELEC  =        26.9427  EHBOND  =         0.0000  RESTRAINT  =         0.0000
 DV/DL  =       -13.9601
 ------------------------------------------------------------------------------

      A V E R A G E S   O V E R 1000000 S T E P S

 NSTEP =  1000000   TIME(PS) =    1000.000  TEMP(K) =   359.60  PRESS =     0.0
 Etot   =        26.2632  EKtot   =        12.8628  EPtot      =        13.4004
 BOND   =         4.9570  ANGLE   =         5.4733  DIHED      =         1.1858
 1-4 NB =         0.3270  1-4 EEL =         4.1208  VDWAALS    =        -0.0815
 EELEC  =        -2.5820  EHBOND  =         0.0000  RESTRAINT  =         0.0000
 DV/DL  =       -13.3757
 ------------------------------------------------------------------------------

      R M S  F L U C T U A T I O N S

 NSTEP =  1000000   TIME(PS) =    1000.000  TEMP(K) =    85.45  PRESS =     0.0
 Etot   =         4.2742  EKtot   =         3.0566  EPtot      =         3.0435
 BOND   =         2.1167  ANGLE   =         1.9306  DIHED      =         0.8365
 1-4 NB =         0.3460  1-4 EEL =         0.6727  VDWAALS    =         0.0346
 EELEC  =         0.6760  EHBOND  =         0.0000  RESTRAINT  =         0.0000
 DV/DL  =         0.7923
 ------------------------------------------------------------------------------

      A V E R A G E S   O V E R 1000000 S T E P S

 NSTEP =  1000000   TIME(PS) =    1000.000  TEMP(K) =   359.59  PRESS =     0.0
 Etot   =        26.2628  EKtot   =        12.8624  EPtot      =        13.4004
 BOND   =         4.9570  ANGLE   =         5.4733  DIHED      =         1.1858
 1-4 NB =         0.3270  1-4 EEL =         4.1208  VDWAALS    =        -0.0815
 EELEC  =        -2.5820  EHBOND  =         0.0000  RESTRAINT  =         0.0000
 DV/DL  =       -13.3757
 ------------------------------------------------------------------------------

      R M S  F L U C T U A T I O N S

 NSTEP =  1000000   TIME(PS) =    1000.000  TEMP(K) =    85.46  PRESS =     0.0
 Etot   =         4.2744  EKtot   =         3.0568  EPtot      =         3.0435
 BOND   =         2.1167  ANGLE   =         1.9306  DIHED      =         0.8365
 1-4 NB =         0.3460  1-4 EEL =         0.6727  VDWAALS    =         0.0346
 EELEC  =         0.6760  EHBOND  =         0.0000  RESTRAINT  =         0.0000
 DV/DL  =         0.7923
 ------------------------------------------------------------------------------

      DV/DL, AVERAGES OVER 1000000 STEPS

 NSTEP =  1000000   TIME(PS) =    1000.000  TEMP(K) =    85.46  PRESS =     0.0
 Etot   =         0.0000  EKtot   =         0.0000  EPtot      =       -13.3757
 BOND   =         0.0001  ANGLE   =         0.0000  DIHED      =        -0.0000
 1-4 NB =        -0.0000  1-4 EEL =       -35.8179  VDWAALS    =         0.0000
 EELEC  =        22.4421  EHBOND  =         0.0000  RESTRAINT  =         0.0000
 DV/DL  =       -13.3757
 ------------------------------------------------------------------------------
