-------------------------------------------------------
          Amber 20 PMEMD                              2020
          -------------------------------------------------------

  [-O]verwriting output

File Assignments:

 Here is the input file:

 &cntrl
   nstlim=1000000, nscm=1000,
   ntx=1, irest=0, ntpr=1000,
   tempi=300.0, temp0=300.0, ntt=3, gamma_ln=2.0,
   ntb=1, igb=0, cut=10.0,
   dt=0.001, ig=-1,
   ntc=1, ntf=1,
   iwrap=0,
   ntwr=1000, ntwx=50000, ntave=1000,
   ioutfm=1, ntwv=-1,
   ifsc = 0, icfe=1,
   clambda=0.95206,
   timask1=':1',
   timask2=':2', crgmask = ':2',
/

Note: ig = -1. Setting random seed to   183424 based on wallclock time in
      microseconds.

--------------------------------------------------------------------------------
   1.  RESOURCE   USE:
--------------------------------------------------------------------------------

 getting box info from netcdf restart file
 NATOM  =      24 NTYPES =       6 NBONH =      16 MBONA  =       6
 NTHETH =      32 MTHETA =       4 NPHIH =      40 MPHIA  =       2
 NHPARM =       0 NPARM  =       0 NNB   =     102 NRES   =       2
 NBONA  =       6 NTHETA =       4 NPHIA =       2 NUMBND =       4
 NUMANG =       6 NPTRA  =       2 NATYP =       6 NPHB   =       1
 IFBOX  =       2 NMXRS  =      12 IFCAP =       0 NEXTRA =       0
 NCOPY  =       0

     BOX TYPE: TRUNCATED OCTAHEDRON

--------------------------------------------------------------------------------
   2.  CONTROL  DATA  FOR  THE  RUN
--------------------------------------------------------------------------------

default_name

General flags:
     imin    =       0, nmropt  =       0

Nature and format of input:
     ntx     =       1, irest   =       0, ntrx    =       1

Nature and format of output:
     ntxo    =       2, ntpr    =    1000, ntrx    =       1, ntwr    =    1000
     iwrap   =       0, ntwx    =   50000, ntwv    =      -1, ntwe    =       0
     ioutfm  =       1, ntwprt  =       0, idecomp =       0, rbornstat=      0

Potential function:
     ntf     =       1, ntb     =       1, igb     =       0, nsnb    =      25
     ipol    =       0, gbsa    =       0, iesp    =       0
     dielc   =   1.00000, cut     =  10.00000, intdiel =   1.00000

Frozen or restrained atoms:
     ibelly  =       0, ntr     =       0

Molecular dynamics:
     nstlim  =   1000000, nscm    =      1000, nrespa  =         1
     t       =   0.00000, dt      =   0.00100, vlimit  =  -1.00000

Langevin dynamics temperature regulation:
     ig      =  183424
     temp0   = 300.00000, tempi   = 300.00000, gamma_ln=   2.00000

Free energy options:
     icfe    =       1, ifsc    =       0, klambda =       1
     clambda =  0.9521, scalpha =  0.5000, scbeta  = 12.0000
     sceeorder =       2
     dynlmb =  0.0000 logdvdl =       0

Ewald parameters:
     verbose =       0, ew_type =       0, nbflag  =       1, use_pme =       1
     vdwmeth =       1, eedmeth =       1, netfrc  =       1
     Box X =   67.054   Box Y =   67.054   Box Z =   67.054
     Alpha =  109.471   Beta  =  109.471   Gamma =  109.471
     NFFT1 =   64       NFFT2 =   64       NFFT3 =   64
     Cutoff=   10.000   Tol   =0.100E-04
     Ewald Coefficient =  0.27511
     Interpolation order =    4
     TI Mask 1 :1; matches     12 atoms
     TI Mask 2 :2; matches     12 atoms
     TI region 1:      12 atoms
     TI region 2:      12 atoms
Removing charge of      -0.6664 from atom      13
Removing charge of      -0.6664 from atom      14
Removing charge of      -0.0664 from atom      15
Removing charge of      -0.0664 from atom      16
Removing charge of       0.2792 from atom      17
Removing charge of       0.2802 from atom      18
Removing charge of       0.2802 from atom      19
Removing charge of       0.2792 from atom      20
Removing charge of       0.0898 from atom      21
Removing charge of       0.0837 from atom      22
Removing charge of       0.0898 from atom      23
Removing charge of       0.0837 from atom      24
Total charge of  -0.00000000 removed from      12 atoms
     Checking for mismatched coordinates.

--------------------------------------------------------------------------------
   3.  ATOMIC COORDINATES AND VELOCITIES
--------------------------------------------------------------------------------

default_name
 begin time read from input coords =     0.000 ps

 Number of triangulated 3-point waters found:        0

     Sum of charges for TI region  1 =  -0.00000000
     Skip neutralizing charges...

     Sum of charges for TI region  2 =   0.00000000
     Skip neutralizing charges...

--------------------------------------------------------------------------------
   4.  RESULTS
 NSTEP =        0   TIME(PS) =       0.000  TEMP(K) =   314.03  PRESS =     0.0
 Etot   =        12.2360  EKtot   =        11.2328  EPtot      =         1.0032
 BOND   =         0.0113  ANGLE   =         0.0641  DIHED      =         0.0545
 1-4 NB =         0.2842  1-4 EEL =         1.9579  VDWAALS    =        -0.0792
 EELEC  =        -1.2895  EHBOND  =         0.0000  RESTRAINT  =         0.0000
 DV/DL  =       -13.9413
 ------------------------------------------------------------------------------

      A V E R A G E S   O V E R    1000 S T E P S

 NSTEP =     1000   TIME(PS) =       1.000  TEMP(K) =   327.16  PRESS =     0.0
 Etot   =        22.6799  EKtot   =        11.7025  EPtot      =        10.9774
 BOND   =         4.5435  ANGLE   =         4.8806  DIHED      =         0.5843
 1-4 NB =         0.3748  1-4 EEL =         1.9638  VDWAALS    =        -0.0792
 EELEC  =        -1.2903  EHBOND  =         0.0000  RESTRAINT  =         0.0000
 DV/DL  =       -14.0482
 ------------------------------------------------------------------------------

      R M S  F L U C T U A T I O N S

 NSTEP =     1000   TIME(PS) =       1.000  TEMP(K) =    94.66  PRESS =     0.0
 Etot   =         6.3661  EKtot   =         3.3858  EPtot      =         4.0351
 BOND   =         2.2147  ANGLE   =         2.4717  DIHED      =         0.4001
 1-4 NB =         0.2584  1-4 EEL =         0.0599  VDWAALS    =         0.0113
 EELEC  =         0.0562  EHBOND  =         0.0000  RESTRAINT  =         0.0000
 DV/DL  =         0.7461
 ------------------------------------------------------------------------------

      A V E R A G E S   O V E R    1000 S T E P S

 NSTEP =     1000   TIME(PS) =       1.000  TEMP(K) =   327.11  PRESS =     0.0
 Etot   =        22.6778  EKtot   =        11.7004  EPtot      =        10.9774
 BOND   =         4.5435  ANGLE   =         4.8806  DIHED      =         0.5843
 1-4 NB =         0.3748  1-4 EEL =         1.9638  VDWAALS    =        -0.0792
 EELEC  =        -1.2903  EHBOND  =         0.0000  RESTRAINT  =         0.0000
 DV/DL  =       -14.0482
 ------------------------------------------------------------------------------

      R M S  F L U C T U A T I O N S

 NSTEP =     1000   TIME(PS) =       1.000  TEMP(K) =    94.71  PRESS =     0.0
 Etot   =         6.3676  EKtot   =         3.3876  EPtot      =         4.0351
 BOND   =         2.2147  ANGLE   =         2.4717  DIHED      =         0.4001
 1-4 NB =         0.2584  1-4 EEL =         0.0599  VDWAALS    =         0.0113
 EELEC  =         0.0562  EHBOND  =         0.0000  RESTRAINT  =         0.0000
 DV/DL  =         0.7461
 ------------------------------------------------------------------------------

      DV/DL, AVERAGES OVER    1000 STEPS

 NSTEP =     1000   TIME(PS) =       1.000  TEMP(K) =    94.71  PRESS =     0.0
 Etot   =         0.0000  EKtot   =         0.0000  EPtot      =       -14.0482
 BOND   =        -0.0018  ANGLE   =         0.0003  DIHED      =         0.0002
 1-4 NB =        -0.0000  1-4 EEL =       -40.9628  VDWAALS    =         0.0000
 EELEC  =        26.9159  EHBOND  =         0.0000  RESTRAINT  =         0.0000
 DV/DL  =       -14.0482
 ------------------------------------------------------------------------------

      A V E R A G E S   O V E R    1000 S T E P S

 NSTEP =     2000   TIME(PS) =       2.000  TEMP(K) =   357.63  PRESS =     0.0
 Etot   =        25.8921  EKtot   =        12.7922  EPtot      =        13.0999
 BOND   =         5.0180  ANGLE   =         6.2996  DIHED      =         0.8268
 1-4 NB =         0.3649  1-4 EEL =         1.9320  VDWAALS    =        -0.0772
 EELEC  =        -1.2642  EHBOND  =         0.0000  RESTRAINT  =         0.0000
 DV/DL  =       -13.9315
 ------------------------------------------------------------------------------

      R M S  F L U C T U A T I O N S

 NSTEP =     2000   TIME(PS) =       2.000  TEMP(K) =    88.66  PRESS =     0.0
 Etot   =         4.3544  EKtot   =         3.1712  EPtot      =         3.0940
 BOND   =         2.2763  ANGLE   =         1.9915  DIHED      =         0.4029
 1-4 NB =         0.2769  1-4 EEL =         0.0804  VDWAALS    =         0.0123
 EELEC  =         0.0703  EHBOND  =         0.0000  RESTRAINT  =         0.0000
 DV/DL  =         0.6084
 ------------------------------------------------------------------------------

      A V E R A G E S   O V E R    1000 S T E P S

 NSTEP =     2000   TIME(PS) =       2.000  TEMP(K) =   357.70  PRESS =     0.0
 Etot   =        25.8945  EKtot   =        12.7946  EPtot      =        13.0999
 BOND   =         5.0180  ANGLE   =         6.2996  DIHED      =         0.8268
 1-4 NB =         0.3649  1-4 EEL =         1.9320  VDWAALS    =        -0.0772
 EELEC  =        -1.2642  EHBOND  =         0.0000  RESTRAINT  =         0.0000
 DV/DL  =       -13.9315
 ------------------------------------------------------------------------------

      R M S  F L U C T U A T I O N S

 NSTEP =     2000   TIME(PS) =       2.000  TEMP(K) =    88.60  PRESS =     0.0
 Etot   =         4.3484  EKtot   =         3.1692  EPtot      =         3.0940
 BOND   =         2.2763  ANGLE   =         1.9915  DIHED      =         0.4029
 1-4 NB =         0.2769  1-4 EEL =         0.0804  VDWAALS    =         0.0123
 EELEC  =         0.0703  EHBOND  =         0.0000  RESTRAINT  =         0.0000
 DV/DL  =         0.6084
 ------------------------------------------------------------------------------

      DV/DL, AVERAGES OVER    1000 STEPS

 NSTEP =     2000   TIME(PS) =       2.000  TEMP(K) =    88.60  PRESS =     0.0
 Etot   =         0.0000  EKtot   =         0.0000  EPtot      =       -13.9315
 BOND   =        -0.0021  ANGLE   =         0.0010  DIHED      =        -0.0001
 1-4 NB =         0.0001  1-4 EEL =       -40.3006  VDWAALS    =         0.0000
 EELEC  =        26.3702  EHBOND  =         0.0000  RESTRAINT  =         0.0000
 DV/DL  =       -13.9315
 ------------------------------------------------------------------------------

      A V E R A G E S   O V E R    1000 S T E P S

 NSTEP =  1000000   TIME(PS) =    1000.000  TEMP(K) =   431.25  PRESS =     0.0
 Etot   =        30.7264  EKtot   =        15.4255  EPtot      =        15.3009
 BOND   =         6.4583  ANGLE   =         7.1816  DIHED      =         0.6286
 1-4 NB =         0.4401  1-4 EEL =         1.9729  VDWAALS    =        -0.0808
 EELEC  =        -1.2997  EHBOND  =         0.0000  RESTRAINT  =         0.0000
 DV/DL  =       -14.0416
 ------------------------------------------------------------------------------

      R M S  F L U C T U A T I O N S

 NSTEP =  1000000   TIME(PS) =    1000.000  TEMP(K) =    77.74  PRESS =     0.0
 Etot   =         2.8547  EKtot   =         2.7809  EPtot      =         2.8587
 BOND   =         2.4172  ANGLE   =         2.0038  DIHED      =         0.2915
 1-4 NB =         0.3048  1-4 EEL =         0.0801  VDWAALS    =         0.0137
 EELEC  =         0.0769  EHBOND  =         0.0000  RESTRAINT  =         0.0000
 DV/DL  =         0.8585
 ------------------------------------------------------------------------------

      A V E R A G E S   O V E R    1000 S T E P S

 NSTEP =  1000000   TIME(PS) =    1000.000  TEMP(K) =   431.24  PRESS =     0.0
 Etot   =        30.7261  EKtot   =        15.4252  EPtot      =        15.3009
 BOND   =         6.4583  ANGLE   =         7.1816  DIHED      =         0.6286
 1-4 NB =         0.4401  1-4 EEL =         1.9729  VDWAALS    =        -0.0808
 EELEC  =        -1.2997  EHBOND  =         0.0000  RESTRAINT  =         0.0000
 DV/DL  =       -14.0416
 ------------------------------------------------------------------------------

      R M S  F L U C T U A T I O N S

 NSTEP =  1000000   TIME(PS) =    1000.000  TEMP(K) =    77.93  PRESS =     0.0
 Etot   =         2.8628  EKtot   =         2.7874  EPtot      =         2.8587
 BOND   =         2.4172  ANGLE   =         2.0038  DIHED      =         0.2915
 1-4 NB =         0.3048  1-4 EEL =         0.0801  VDWAALS    =         0.0137
 EELEC  =         0.0769  EHBOND  =         0.0000  RESTRAINT  =         0.0000
 DV/DL  =         0.8585
 ------------------------------------------------------------------------------

      DV/DL, AVERAGES OVER    1000 STEPS

 NSTEP =  1000000   TIME(PS) =    1000.000  TEMP(K) =    77.93  PRESS =     0.0
 Etot   =         0.0000  EKtot   =         0.0000  EPtot      =       -14.0416
 BOND   =        -0.0001  ANGLE   =        -0.0006  DIHED      =         0.0003
 1-4 NB =        -0.0000  1-4 EEL =       -41.1531  VDWAALS    =         0.0000
 EELEC  =        27.1120  EHBOND  =         0.0000  RESTRAINT  =         0.0000
 DV/DL  =       -14.0416
 ------------------------------------------------------------------------------

      A V E R A G E S   O V E R 1000000 S T E P S

 NSTEP =  1000000   TIME(PS) =    1000.000  TEMP(K) =   362.87  PRESS =     0.0
 Etot   =        25.6000  EKtot   =        12.9797  EPtot      =        12.6203
 BOND   =         5.0686  ANGLE   =         5.5052  DIHED      =         1.1826
 1-4 NB =         0.2905  1-4 EEL =         1.6576  VDWAALS    =        -0.0717
 EELEC  =        -1.0125  EHBOND  =         0.0000  RESTRAINT  =         0.0000
 DV/DL  =       -13.4552
 ------------------------------------------------------------------------------

      R M S  F L U C T U A T I O N S

 NSTEP =  1000000   TIME(PS) =    1000.000  TEMP(K) =    87.77  PRESS =     0.0
 Etot   =         4.4928  EKtot   =         3.1395  EPtot      =         3.1566
 BOND   =         2.2137  ANGLE   =         1.9744  DIHED      =         0.8332
 1-4 NB =         0.3341  1-4 EEL =         0.2891  VDWAALS    =         0.0323
 EELEC  =         0.2910  EHBOND  =         0.0000  RESTRAINT  =         0.0000
 DV/DL  =         0.8031
 ------------------------------------------------------------------------------

      A V E R A G E S   O V E R 1000000 S T E P S

 NSTEP =  1000000   TIME(PS) =    1000.000  TEMP(K) =   362.88  PRESS =     0.0
 Etot   =        25.6002  EKtot   =        12.9799  EPtot      =        12.6203
 BOND   =         5.0686  ANGLE   =         5.5052  DIHED      =         1.1826
 1-4 NB =         0.2905  1-4 EEL =         1.6576  VDWAALS    =        -0.0717
 EELEC  =        -1.0125  EHBOND  =         0.0000  RESTRAINT  =         0.0000
 DV/DL  =       -13.4552
 ------------------------------------------------------------------------------

      R M S  F L U C T U A T I O N S

 NSTEP =  1000000   TIME(PS) =    1000.000  TEMP(K) =    87.77  PRESS =     0.0
 Etot   =         4.4928  EKtot   =         3.1395  EPtot      =         3.1566
 BOND   =         2.2137  ANGLE   =         1.9744  DIHED      =         0.8332
 1-4 NB =         0.3341  1-4 EEL =         0.2891  VDWAALS    =         0.0323
 EELEC  =         0.2910  EHBOND  =         0.0000  RESTRAINT  =         0.0000
 DV/DL  =         0.8031
 ------------------------------------------------------------------------------

      DV/DL, AVERAGES OVER 1000000 STEPS

 NSTEP =  1000000   TIME(PS) =    1000.000  TEMP(K) =    87.77  PRESS =     0.0
 Etot   =         0.0000  EKtot   =         0.0000  EPtot      =       -13.4552
 BOND   =        -0.0002  ANGLE   =         0.0000  DIHED      =        -0.0000
 1-4 NB =        -0.0000  1-4 EEL =       -34.5756  VDWAALS    =        -0.0000
 EELEC  =        21.1206  EHBOND  =         0.0000  RESTRAINT  =         0.0000
 DV/DL  =       -13.4552
 ------------------------------------------------------------------------------
