-------------------------------------------------------
          Amber 20 PMEMD                              2020
          -------------------------------------------------------

  [-O]verwriting output

File Assignments:

 Here is the input file:

 &cntrl
   nstlim=500000, nscm=1000,
   ntx=5, irest=1, ntpr=1000,
   tempi=300.0, temp0=300.0, ntt=3, gamma_ln=2.0,
   ntp=1, pres0=1.01325, taup=5.0,
   ntb=2, igb=0, cut=10.0,
   dt=0.002, ig=-1,
   ntc=2, ntf=2,
   iwrap=0,
   ntwr=1000, ntwx=50000, ntave=1000,
   ioutfm=1, ntwv=-1,
   ifsc = 0, icfe=1,
   clambda=0.95206,
   timask1=':1',
   timask2=':2', crgmask = ':2',
/

Note: ig = -1. Setting random seed to   327272 based on wallclock time in
      microseconds.

--------------------------------------------------------------------------------
   1.  RESOURCE   USE:
--------------------------------------------------------------------------------

 getting box info from netcdf restart file
 NATOM  =   20967 NTYPES =       6 NBONH =   20959 MBONA  =       6
 NTHETH =      32 MTHETA =       4 NPHIH =      40 MPHIA  =       2
 NHPARM =       0 NPARM  =       0 NNB   =   28026 NRES   =    6983
 NBONA  =       6 NTHETA =       4 NPHIA =       2 NUMBND =       6
 NUMANG =       6 NPTRA  =       2 NATYP =       6 NPHB   =       1
 IFBOX  =       2 NMXRS  =      12 IFCAP =       0 NEXTRA =       0
 NCOPY  =       0

     BOX TYPE: TRUNCATED OCTAHEDRON

--------------------------------------------------------------------------------
   2.  CONTROL  DATA  FOR  THE  RUN
--------------------------------------------------------------------------------

default_name

General flags:
     imin    =       0, nmropt  =       0

Nature and format of input:
     ntx     =       5, irest   =       1, ntrx    =       1

Nature and format of output:
     ntxo    =       2, ntpr    =    1000, ntrx    =       1, ntwr    =    1000
     iwrap   =       0, ntwx    =   50000, ntwv    =      -1, ntwe    =       0
     ioutfm  =       1, ntwprt  =       0, idecomp =       0, rbornstat=      0

Potential function:
     ntf     =       2, ntb     =       2, igb     =       0, nsnb    =      25
     ipol    =       0, gbsa    =       0, iesp    =       0
     dielc   =   1.00000, cut     =  10.00000, intdiel =   1.00000

Frozen or restrained atoms:
     ibelly  =       0, ntr     =       0

Molecular dynamics:
     nstlim  =    500000, nscm    =      1000, nrespa  =         1
     t       =   0.00000, dt      =   0.00200, vlimit  =  -1.00000

Langevin dynamics temperature regulation:
     ig      =  327272
     temp0   = 300.00000, tempi   = 300.00000, gamma_ln=   2.00000

Pressure regulation:
     ntp     =       1
     pres0   =   1.01325, comp    =  44.60000, taup    =   5.00000

SHAKE:
     ntc     =       2, jfastw  =       0
     tol     =   0.00001

Free energy options:
     icfe    =       1, ifsc    =       0, klambda =       1
     clambda =  0.9521, scalpha =  0.5000, scbeta  = 12.0000
     sceeorder =       2
     dynlmb =  0.0000 logdvdl =       0

Ewald parameters:
     verbose =       0, ew_type =       0, nbflag  =       1, use_pme =       1
     vdwmeth =       1, eedmeth =       1, netfrc  =       1
     Box X =   67.054   Box Y =   67.054   Box Z =   67.054
     Alpha =  109.471   Beta  =  109.471   Gamma =  109.471
     NFFT1 =   64       NFFT2 =   64       NFFT3 =   64
     Cutoff=   10.000   Tol   =0.100E-04
     Ewald Coefficient =  0.27511
     Interpolation order =    4
     TI Mask 1 :1; matches     12 atoms
     TI Mask 2 :2; matches     12 atoms
     TI region 1:   20955 atoms
     TI region 2:   20955 atoms
Removing charge of      -0.6664 from atom      13
Removing charge of      -0.6664 from atom      14
Removing charge of      -0.0664 from atom      15
Removing charge of      -0.0664 from atom      16
Removing charge of       0.2792 from atom      17
Removing charge of       0.2802 from atom      18
Removing charge of       0.2802 from atom      19
Removing charge of       0.2792 from atom      20
Removing charge of       0.0898 from atom      21
Removing charge of       0.0837 from atom      22
Removing charge of       0.0898 from atom      23
Removing charge of       0.0837 from atom      24
Total charge of  -0.00000000 removed from      12 atoms
     Checking for mismatched coordinates.

--------------------------------------------------------------------------------
   3.  ATOMIC COORDINATES AND VELOCITIES
--------------------------------------------------------------------------------

default_name
 begin time read from input coords =   200.000 ps

 Number of triangulated 3-point waters found:     6981

     Sum of charges for TI region  1 =  -0.00000000
     Skip neutralizing charges...

     Sum of charges for TI region  2 =   0.00000000
     Skip neutralizing charges...

--------------------------------------------------------------------------------
   4.  RESULTS
 NSTEP =     1000   TIME(PS) =     202.000  TEMP(K) =   296.91  PRESS =  -670.7
 Etot   =    -53206.9442  EKtot   =     12365.0517  EPtot      =    -65571.9959
 BOND   =         0.2478  ANGLE   =         5.0935  DIHED      =         0.8505
 1-4 NB =         0.3042  1-4 EEL =         1.9994  VDWAALS    =      9740.0014
 EELEC  =    -75320.4926  EHBOND  =         0.0000  RESTRAINT  =         0.0000
 EKCMT  =      6254.5480  VIRIAL  =      9561.5717  VOLUME     =    228355.5391
                                                    Density    =         0.9150
 DV/DL  =       -14.2481
 ------------------------------------------------------------------------------

      A V E R A G E S   O V E R    1000 S T E P S

 NSTEP =     1000   TIME(PS) =     202.000  TEMP(K) =   299.10  PRESS =  -907.4
 Etot   =    -53146.0194  EKtot   =     12456.1556  EPtot      =    -65602.1750
 BOND   =         1.0172  ANGLE   =         4.5483  DIHED      =         0.8749
 1-4 NB =         0.6336  1-4 EEL =         2.0061  VDWAALS    =      9588.6410
 EELEC  =    -75199.8961  EHBOND  =         0.0000  RESTRAINT  =         0.0000
 EKCMT  =      6241.8401  VIRIAL  =     10752.1249  VOLUME     =    230117.7022
                                                    Density    =         0.9080
 DV/DL  =       -14.0152
 ------------------------------------------------------------------------------

      R M S  F L U C T U A T I O N S

 NSTEP =     1000   TIME(PS) =     202.000  TEMP(K) =     1.71  PRESS =   142.9
 Etot   =        98.3886  EKtot   =        71.2260  EPtot      =       115.4268
 BOND   =         0.8135  ANGLE   =         1.7280  DIHED      =         0.5542
 1-4 NB =         0.3700  1-4 EEL =         0.0795  VDWAALS    =       140.2030
 EELEC  =       225.4959  EHBOND  =         0.0000  RESTRAINT  =         0.0000
 EKCMT  =        50.6487  VIRIAL  =       713.2563  VOLUME     =      1065.6426
                                                    Density    =         0.0042
 DV/DL  =         2.4486
 ------------------------------------------------------------------------------

      A V E R A G E S   O V E R    1000 S T E P S

 NSTEP =     1000   TIME(PS) =     202.000  TEMP(K) =   299.10  PRESS =  -907.4
 Etot   =    -53146.0194  EKtot   =     12456.1556  EPtot      =    -65602.1750
 BOND   =         1.0172  ANGLE   =         4.5483  DIHED      =         0.8749
 1-4 NB =         0.6336  1-4 EEL =         2.0061  VDWAALS    =      9588.6410
 EELEC  =    -75199.8961  EHBOND  =         0.0000  RESTRAINT  =         0.0000
 EKCMT  =      6241.8401  VIRIAL  =     10752.1249  VOLUME     =    230117.7022
                                                    Density    =         0.9080
 DV/DL  =       -14.0152
 ------------------------------------------------------------------------------

      R M S  F L U C T U A T I O N S

 NSTEP =     1000   TIME(PS) =     202.000  TEMP(K) =     1.71  PRESS =   142.9
 Etot   =        98.3886  EKtot   =        71.2260  EPtot      =       115.4268
 BOND   =         0.8135  ANGLE   =         1.7280  DIHED      =         0.5542
 1-4 NB =         0.3700  1-4 EEL =         0.0795  VDWAALS    =       140.2030
 EELEC  =       225.4959  EHBOND  =         0.0000  RESTRAINT  =         0.0000
 EKCMT  =        50.6487  VIRIAL  =       713.2563  VOLUME     =      1065.6426
                                                    Density    =         0.0042
 DV/DL  =         2.4486
 ------------------------------------------------------------------------------

      DV/DL, AVERAGES OVER    1000 STEPS

 NSTEP =     1000   TIME(PS) =     202.000  TEMP(K) =     1.71  PRESS =     0.0
 Etot   =         0.0000  EKtot   =         0.0000  EPtot      =       -14.0152
 BOND   =         0.0000  ANGLE   =         0.0000  DIHED      =         0.0000
 1-4 NB =         0.0000  1-4 EEL =       -41.8454  VDWAALS    =         0.0000
 EELEC  =        27.8302  EHBOND  =         0.0000  RESTRAINT  =         0.0000
 EKCMT  =         0.0000  VIRIAL  =         0.0000  VOLUME     =         0.0000
                                                    Density    =         0.0000
 DV/DL  =       -14.0152
 ------------------------------------------------------------------------------

      A V E R A G E S   O V E R    1000 S T E P S

 NSTEP =     2000   TIME(PS) =     204.000  TEMP(K) =   299.98  PRESS =  -772.4
 Etot   =    -53154.3713  EKtot   =     12492.7111  EPtot      =    -65647.0824
 BOND   =         0.7997  ANGLE   =         4.3560  DIHED      =         1.0262
 1-4 NB =         0.7818  1-4 EEL =         1.9884  VDWAALS    =      9589.3901
 EELEC  =    -75245.4246  EHBOND  =         0.0000  RESTRAINT  =         0.0000
 EKCMT  =      6260.7821  VIRIAL  =     10042.8535  VOLUME     =    226746.8131
                                                    Density    =         0.9215
 DV/DL  =       -14.1464
 ------------------------------------------------------------------------------

      R M S  F L U C T U A T I O N S

 NSTEP =     2000   TIME(PS) =     204.000  TEMP(K) =     1.87  PRESS =   139.1
 Etot   =        55.7979  EKtot   =        78.0576  EPtot      =        76.8723
 BOND   =         0.6470  ANGLE   =         1.2689  DIHED      =         0.6158
 1-4 NB =         0.7335  1-4 EEL =         0.1497  VDWAALS    =       122.2204
 EELEC  =       146.0750  EHBOND  =         0.0000  RESTRAINT  =         0.0000
 EKCMT  =        61.3896  VIRIAL  =       701.0860  VOLUME     =       936.8780
                                                    Density    =         0.0038
 DV/DL  =         1.7461
 ------------------------------------------------------------------------------

      A V E R A G E S   O V E R    1000 S T E P S

 NSTEP =     2000   TIME(PS) =     204.000  TEMP(K) =   299.98  PRESS =  -772.4
 Etot   =    -53154.3713  EKtot   =     12492.7111  EPtot      =    -65647.0824
 BOND   =         0.7997  ANGLE   =         4.3560  DIHED      =         1.0262
 1-4 NB =         0.7818  1-4 EEL =         1.9884  VDWAALS    =      9589.3901
 EELEC  =    -75245.4246  EHBOND  =         0.0000  RESTRAINT  =         0.0000
 EKCMT  =      6260.7821  VIRIAL  =     10042.8535  VOLUME     =    226746.8131
                                                    Density    =         0.9215
 DV/DL  =       -14.1464
 ------------------------------------------------------------------------------

      R M S  F L U C T U A T I O N S

 NSTEP =     2000   TIME(PS) =     204.000  TEMP(K) =     1.87  PRESS =   139.1
 Etot   =        55.7979  EKtot   =        78.0576  EPtot      =        76.8723
 BOND   =         0.6470  ANGLE   =         1.2689  DIHED      =         0.6158
 1-4 NB =         0.7335  1-4 EEL =         0.1497  VDWAALS    =       122.2204
 EELEC  =       146.0750  EHBOND  =         0.0000  RESTRAINT  =         0.0000
 EKCMT  =        61.3896  VIRIAL  =       701.0860  VOLUME     =       936.8780
                                                    Density    =         0.0038
 DV/DL  =         1.7461
 ------------------------------------------------------------------------------

      DV/DL, AVERAGES OVER    1000 STEPS

 NSTEP =     2000   TIME(PS) =     204.000  TEMP(K) =     1.87  PRESS =     0.0
 Etot   =         0.0000  EKtot   =         0.0000  EPtot      =       -14.1464
 BOND   =         0.0000  ANGLE   =         0.0000  DIHED      =         0.0000
 1-4 NB =         0.0000  1-4 EEL =       -41.4766  VDWAALS    =         0.0000
 EELEC  =        27.3302  EHBOND  =         0.0000  RESTRAINT  =         0.0000
 EKCMT  =         0.0000  VIRIAL  =         0.0000  VOLUME     =         0.0000
                                                    Density    =         0.0000
 DV/DL  =       -14.1464
 ------------------------------------------------------------------------------

      A V E R A G E S   O V E R    1000 S T E P S

 NSTEP =   500000   TIME(PS) =    1200.000  TEMP(K) =   298.56  PRESS =    33.5
 Etot   =    -54297.3709  EKtot   =     12433.7712  EPtot      =    -66731.1421
 BOND   =         1.3492  ANGLE   =         5.4682  DIHED      =         0.9913
 1-4 NB =         0.8307  1-4 EEL =         2.0248  VDWAALS    =     10024.2885
 EELEC  =    -76766.0947  EHBOND  =         0.0000  RESTRAINT  =         0.0000
 EKCMT  =      6242.7987  VIRIAL  =      6089.1899  VOLUME     =    212484.7215
                                                    Density    =         0.9834
 DV/DL  =       -13.3864
 ------------------------------------------------------------------------------

      R M S  F L U C T U A T I O N S

 NSTEP =   500000   TIME(PS) =    1200.000  TEMP(K) =     1.76  PRESS =   141.8
 Etot   =        95.9528  EKtot   =        73.4274  EPtot      =       100.9039
 BOND   =         1.3100  ANGLE   =         2.7010  DIHED      =         0.5496
 1-4 NB =         0.7164  1-4 EEL =         0.1016  VDWAALS    =       140.4568
 EELEC  =       203.0297  EHBOND  =         0.0000  RESTRAINT  =         0.0000
 EKCMT  =        55.5937  VIRIAL  =       640.7725  VOLUME     =        56.6644
                                                    Density    =         0.0003
 DV/DL  =         2.4197
 ------------------------------------------------------------------------------

      A V E R A G E S   O V E R    1000 S T E P S

 NSTEP =   500000   TIME(PS) =    1200.000  TEMP(K) =   298.56  PRESS =    33.5
 Etot   =    -54297.3709  EKtot   =     12433.7712  EPtot      =    -66731.1421
 BOND   =         1.3492  ANGLE   =         5.4682  DIHED      =         0.9913
 1-4 NB =         0.8307  1-4 EEL =         2.0248  VDWAALS    =     10024.2885
 EELEC  =    -76766.0947  EHBOND  =         0.0000  RESTRAINT  =         0.0000
 EKCMT  =      6242.7987  VIRIAL  =      6089.1899  VOLUME     =    212484.7215
                                                    Density    =         0.9834
 DV/DL  =       -13.3864
 ------------------------------------------------------------------------------

      R M S  F L U C T U A T I O N S

 NSTEP =   500000   TIME(PS) =    1200.000  TEMP(K) =     1.76  PRESS =   141.8
 Etot   =        95.9528  EKtot   =        73.4274  EPtot      =       100.9039
 BOND   =         1.3100  ANGLE   =         2.7010  DIHED      =         0.5496
 1-4 NB =         0.7164  1-4 EEL =         0.1016  VDWAALS    =       140.4568
 EELEC  =       203.0297  EHBOND  =         0.0000  RESTRAINT  =         0.0000
 EKCMT  =        55.5937  VIRIAL  =       640.7725  VOLUME     =        56.6644
                                                    Density    =         0.0003
 DV/DL  =         2.4197
 ------------------------------------------------------------------------------

      DV/DL, AVERAGES OVER    1000 STEPS

 NSTEP =   500000   TIME(PS) =    1200.000  TEMP(K) =     1.76  PRESS =     0.0
 Etot   =         0.0000  EKtot   =         0.0000  EPtot      =       -13.3864
 BOND   =         0.0000  ANGLE   =         0.0000  DIHED      =         0.0000
 1-4 NB =         0.0000  1-4 EEL =       -42.2364  VDWAALS    =         0.0000
 EELEC  =        28.8500  EHBOND  =         0.0000  RESTRAINT  =         0.0000
 EKCMT  =         0.0000  VIRIAL  =         0.0000  VOLUME     =         0.0000
                                                    Density    =         0.0000
 DV/DL  =       -13.3864
 ------------------------------------------------------------------------------

      A V E R A G E S   O V E R  500000 S T E P S

 NSTEP =   500000   TIME(PS) =    1200.000  TEMP(K) =   300.11  PRESS =    -8.8
 Etot   =    -54072.6341  EKtot   =     12498.3971  EPtot      =    -66571.0312
 BOND   =         0.9389  ANGLE   =         4.8888  DIHED      =         1.1803
 1-4 NB =         0.5895  1-4 EEL =         1.7173  VDWAALS    =      9951.8371
 EELEC  =    -76532.1832  EHBOND  =         0.0000  RESTRAINT  =         0.0000
 EKCMT  =      6266.8484  VIRIAL  =      6309.4185  VOLUME     =    212779.7917
                                                    Density    =         0.9820
 DV/DL  =       -13.0180
 ------------------------------------------------------------------------------

      R M S  F L U C T U A T I O N S

 NSTEP =   500000   TIME(PS) =    1200.000  TEMP(K) =     2.06  PRESS =   148.2
 Etot   =       163.5450  EKtot   =        85.8468  EPtot      =       141.6804
 BOND   =         0.7732  ANGLE   =         1.7309  DIHED      =         0.8549
 1-4 NB =         0.8143  1-4 EEL =         0.3161  VDWAALS    =       127.6429
 EELEC  =       219.1924  EHBOND  =         0.0000  RESTRAINT  =         0.0000
 EKCMT  =        61.2412  VIRIAL  =       688.1828  VOLUME     =      1304.0923
                                                    Density    =         0.0057
 DV/DL  =         2.3740
 ------------------------------------------------------------------------------

      A V E R A G E S   O V E R  500000 S T E P S

 NSTEP =   500000   TIME(PS) =    1200.000  TEMP(K) =   300.11  PRESS =    -8.8
 Etot   =    -54072.6341  EKtot   =     12498.3971  EPtot      =    -66571.0312
 BOND   =         0.9389  ANGLE   =         4.8888  DIHED      =         1.1803
 1-4 NB =         0.5895  1-4 EEL =         1.7173  VDWAALS    =      9951.8371
 EELEC  =    -76532.1832  EHBOND  =         0.0000  RESTRAINT  =         0.0000
 EKCMT  =      6266.8484  VIRIAL  =      6309.4185  VOLUME     =    212779.7917
                                                    Density    =         0.9820
 DV/DL  =       -13.0180
 ------------------------------------------------------------------------------

      R M S  F L U C T U A T I O N S

 NSTEP =   500000   TIME(PS) =    1200.000  TEMP(K) =     2.06  PRESS =   148.2
 Etot   =       163.5450  EKtot   =        85.8468  EPtot      =       141.6804
 BOND   =         0.7732  ANGLE   =         1.7309  DIHED      =         0.8549
 1-4 NB =         0.8143  1-4 EEL =         0.3161  VDWAALS    =       127.6429
 EELEC  =       219.1924  EHBOND  =         0.0000  RESTRAINT  =         0.0000
 EKCMT  =        61.2412  VIRIAL  =       688.1828  VOLUME     =      1304.0923
                                                    Density    =         0.0057
 DV/DL  =         2.3740
 ------------------------------------------------------------------------------

      DV/DL, AVERAGES OVER  500000 STEPS

 NSTEP =   500000   TIME(PS) =    1200.000  TEMP(K) =     2.06  PRESS =     0.0
 Etot   =         0.0000  EKtot   =         0.0000  EPtot      =       -13.0180
 BOND   =         0.0000  ANGLE   =         0.0000  DIHED      =         0.0000
 1-4 NB =         0.0000  1-4 EEL =       -35.8217  VDWAALS    =         0.0000
 EELEC  =        22.8037  EHBOND  =         0.0000  RESTRAINT  =         0.0000
 EKCMT  =         0.0000  VIRIAL  =         0.0000  VOLUME     =         0.0000
                                                    Density    =         0.0000
 DV/DL  =       -13.0180
 ------------------------------------------------------------------------------
