-------------------------------------------------------
          Amber 20 PMEMD                              2020
          -------------------------------------------------------

  [-O]verwriting output

File Assignments:

 Here is the input file:

 &cntrl
   nstlim=500000, nscm=1000,
   ntx=5, irest=1, ntpr=1000,
   tempi=300.0, temp0=300.0, ntt=3, gamma_ln=2.0,
   ntp=1, pres0=1.01325, taup=5.0,
   ntb=2, igb=0, cut=10.0,
   dt=0.002, ig=-1,
   ntc=2, ntf=2,
   iwrap=0,
   ntwr=1000, ntwx=50000, ntave=1000,
   ioutfm=1, ntwv=-1,
   ifsc = 0, icfe=1,
   clambda=0.11505,
   timask1=':1',
   timask2=':2', crgmask = ':2',
/

Note: ig = -1. Setting random seed to   467011 based on wallclock time in
      microseconds.

--------------------------------------------------------------------------------
   1.  RESOURCE   USE:
--------------------------------------------------------------------------------

 getting box info from netcdf restart file
 NATOM  =   20967 NTYPES =       6 NBONH =   20959 MBONA  =       6
 NTHETH =      32 MTHETA =       4 NPHIH =      40 MPHIA  =       2
 NHPARM =       0 NPARM  =       0 NNB   =   28026 NRES   =    6983
 NBONA  =       6 NTHETA =       4 NPHIA =       2 NUMBND =       6
 NUMANG =       6 NPTRA  =       2 NATYP =       6 NPHB   =       1
 IFBOX  =       2 NMXRS  =      12 IFCAP =       0 NEXTRA =       0
 NCOPY  =       0

     BOX TYPE: TRUNCATED OCTAHEDRON

--------------------------------------------------------------------------------
   2.  CONTROL  DATA  FOR  THE  RUN
--------------------------------------------------------------------------------

default_name

General flags:
     imin    =       0, nmropt  =       0

Nature and format of input:
     ntx     =       5, irest   =       1, ntrx    =       1

Nature and format of output:
     ntxo    =       2, ntpr    =    1000, ntrx    =       1, ntwr    =    1000
     iwrap   =       0, ntwx    =   50000, ntwv    =      -1, ntwe    =       0
     ioutfm  =       1, ntwprt  =       0, idecomp =       0, rbornstat=      0

Potential function:
     ntf     =       2, ntb     =       2, igb     =       0, nsnb    =      25
     ipol    =       0, gbsa    =       0, iesp    =       0
     dielc   =   1.00000, cut     =  10.00000, intdiel =   1.00000

Frozen or restrained atoms:
     ibelly  =       0, ntr     =       0

Molecular dynamics:
     nstlim  =    500000, nscm    =      1000, nrespa  =         1
     t       =   0.00000, dt      =   0.00200, vlimit  =  -1.00000

Langevin dynamics temperature regulation:
     ig      =  467011
     temp0   = 300.00000, tempi   = 300.00000, gamma_ln=   2.00000

Pressure regulation:
     ntp     =       1
     pres0   =   1.01325, comp    =  44.60000, taup    =   5.00000

SHAKE:
     ntc     =       2, jfastw  =       0
     tol     =   0.00001

Free energy options:
     icfe    =       1, ifsc    =       0, klambda =       1
     clambda =  0.1150, scalpha =  0.5000, scbeta  = 12.0000
     sceeorder =       2
     dynlmb =  0.0000 logdvdl =       0

Ewald parameters:
     verbose =       0, ew_type =       0, nbflag  =       1, use_pme =       1
     vdwmeth =       1, eedmeth =       1, netfrc  =       1
     Box X =   67.054   Box Y =   67.054   Box Z =   67.054
     Alpha =  109.471   Beta  =  109.471   Gamma =  109.471
     NFFT1 =   64       NFFT2 =   64       NFFT3 =   64
     Cutoff=   10.000   Tol   =0.100E-04
     Ewald Coefficient =  0.27511
     Interpolation order =    4
     TI Mask 1 :1; matches     12 atoms
     TI Mask 2 :2; matches     12 atoms
     TI region 1:   20955 atoms
     TI region 2:   20955 atoms
Removing charge of      -0.6664 from atom      13
Removing charge of      -0.6664 from atom      14
Removing charge of      -0.0664 from atom      15
Removing charge of      -0.0664 from atom      16
Removing charge of       0.2792 from atom      17
Removing charge of       0.2802 from atom      18
Removing charge of       0.2802 from atom      19
Removing charge of       0.2792 from atom      20
Removing charge of       0.0898 from atom      21
Removing charge of       0.0837 from atom      22
Removing charge of       0.0898 from atom      23
Removing charge of       0.0837 from atom      24
Total charge of  -0.00000000 removed from      12 atoms
     Checking for mismatched coordinates.

--------------------------------------------------------------------------------
   3.  ATOMIC COORDINATES AND VELOCITIES
--------------------------------------------------------------------------------

default_name
 begin time read from input coords =   200.000 ps

 Number of triangulated 3-point waters found:     6981

     Sum of charges for TI region  1 =  -0.00000000
     Skip neutralizing charges...

     Sum of charges for TI region  2 =   0.00000000
     Skip neutralizing charges...

--------------------------------------------------------------------------------
   4.  RESULTS
 NSTEP =     1000   TIME(PS) =     202.000  TEMP(K) =   301.82  PRESS =  -622.6
 Etot   =    -53180.5667  EKtot   =     12569.5797  EPtot      =    -65750.1463
 BOND   =         0.9679  ANGLE   =         5.8883  DIHED      =         2.9772
 1-4 NB =         0.2439  1-4 EEL =        25.1471  VDWAALS    =      9767.8524
 EELEC  =    -75553.2230  EHBOND  =         0.0000  RESTRAINT  =         0.0000
 EKCMT  =      6231.6652  VIRIAL  =      9308.1852  VOLUME     =    228845.8352
                                                    Density    =         0.9131
 DV/DL  =         3.4078
 ------------------------------------------------------------------------------

      A V E R A G E S   O V E R    1000 S T E P S

 NSTEP =     1000   TIME(PS) =     202.000  TEMP(K) =   300.80  PRESS =  -787.1
 Etot   =    -53037.1496  EKtot   =     12527.0634  EPtot      =    -65564.2130
 BOND   =         0.9447  ANGLE   =         5.9614  DIHED      =         1.0899
 1-4 NB =         0.1918  1-4 EEL =        25.7051  VDWAALS    =      9620.6039
 EELEC  =    -75218.7099  EHBOND  =         0.0000  RESTRAINT  =         0.0000
 EKCMT  =      6274.8849  VIRIAL  =     10191.5420  VOLUME     =    230372.4424
                                                    Density    =         0.9070
 DV/DL  =        -1.4373
 ------------------------------------------------------------------------------

      R M S  F L U C T U A T I O N S

 NSTEP =     1000   TIME(PS) =     202.000  TEMP(K) =     2.14  PRESS =   145.4
 Etot   =       163.9571  EKtot   =        88.9460  EPtot      =       126.9288
 BOND   =         0.6886  ANGLE   =         1.7848  DIHED      =         0.8220
 1-4 NB =         0.2117  1-4 EEL =         0.6830  VDWAALS    =       140.2147
 EELEC  =       221.9940  EHBOND  =         0.0000  RESTRAINT  =         0.0000
 EKCMT  =        61.3491  VIRIAL  =       744.2061  VOLUME     =       956.3401
                                                    Density    =         0.0038
 DV/DL  =         2.8869
 ------------------------------------------------------------------------------

      A V E R A G E S   O V E R    1000 S T E P S

 NSTEP =     1000   TIME(PS) =     202.000  TEMP(K) =   300.80  PRESS =  -787.1
 Etot   =    -53037.1496  EKtot   =     12527.0634  EPtot      =    -65564.2130
 BOND   =         0.9447  ANGLE   =         5.9614  DIHED      =         1.0899
 1-4 NB =         0.1918  1-4 EEL =        25.7051  VDWAALS    =      9620.6039
 EELEC  =    -75218.7099  EHBOND  =         0.0000  RESTRAINT  =         0.0000
 EKCMT  =      6274.8849  VIRIAL  =     10191.5420  VOLUME     =    230372.4424
                                                    Density    =         0.9070
 DV/DL  =        -1.4373
 ------------------------------------------------------------------------------

      R M S  F L U C T U A T I O N S

 NSTEP =     1000   TIME(PS) =     202.000  TEMP(K) =     2.14  PRESS =   145.4
 Etot   =       163.9571  EKtot   =        88.9460  EPtot      =       126.9288
 BOND   =         0.6886  ANGLE   =         1.7848  DIHED      =         0.8220
 1-4 NB =         0.2117  1-4 EEL =         0.6830  VDWAALS    =       140.2147
 EELEC  =       221.9940  EHBOND  =         0.0000  RESTRAINT  =         0.0000
 EKCMT  =        61.3491  VIRIAL  =       744.2061  VOLUME     =       956.3401
                                                    Density    =         0.0038
 DV/DL  =         2.8869
 ------------------------------------------------------------------------------

      DV/DL, AVERAGES OVER    1000 STEPS

 NSTEP =     1000   TIME(PS) =     202.000  TEMP(K) =     2.14  PRESS =     0.0
 Etot   =         0.0000  EKtot   =         0.0000  EPtot      =        -1.4373
 BOND   =         0.0000  ANGLE   =         0.0000  DIHED      =         0.0000
 1-4 NB =         0.0000  1-4 EEL =       -29.0470  VDWAALS    =         0.0000
 EELEC  =        27.6097  EHBOND  =         0.0000  RESTRAINT  =         0.0000
 EKCMT  =         0.0000  VIRIAL  =         0.0000  VOLUME     =         0.0000
                                                    Density    =         0.0000
 DV/DL  =        -1.4373
 ------------------------------------------------------------------------------

      A V E R A G E S   O V E R    1000 S T E P S

 NSTEP =     2000   TIME(PS) =     204.000  TEMP(K) =   299.83  PRESS =  -621.7
 Etot   =    -53233.9287  EKtot   =     12486.4114  EPtot      =    -65720.3401
 BOND   =         0.8670  ANGLE   =         4.5422  DIHED      =         1.1231
 1-4 NB =         0.2100  1-4 EEL =        25.7311  VDWAALS    =      9722.9931
 EELEC  =    -75475.8066  EHBOND  =         0.0000  RESTRAINT  =         0.0000
 EKCMT  =      6242.2747  VIRIAL  =      9297.0272  VOLUME     =    227532.6083
                                                    Density    =         0.9183
 DV/DL  =         0.4718
 ------------------------------------------------------------------------------

      R M S  F L U C T U A T I O N S

 NSTEP =     2000   TIME(PS) =     204.000  TEMP(K) =     1.70  PRESS =   129.3
 Etot   =        69.7105  EKtot   =        70.9492  EPtot      =        68.9553
 BOND   =         0.6231  ANGLE   =         1.4952  DIHED      =         0.6667
 1-4 NB =         0.2218  1-4 EEL =         0.6382  VDWAALS    =       112.6480
 EELEC  =       125.9895  EHBOND  =         0.0000  RESTRAINT  =         0.0000
 EKCMT  =        55.7810  VIRIAL  =       628.5358  VOLUME     =       744.5639
                                                    Density    =         0.0030
 DV/DL  =         2.4909
 ------------------------------------------------------------------------------

      A V E R A G E S   O V E R    1000 S T E P S

 NSTEP =     2000   TIME(PS) =     204.000  TEMP(K) =   299.83  PRESS =  -621.7
 Etot   =    -53233.9287  EKtot   =     12486.4114  EPtot      =    -65720.3401
 BOND   =         0.8670  ANGLE   =         4.5422  DIHED      =         1.1231
 1-4 NB =         0.2100  1-4 EEL =        25.7311  VDWAALS    =      9722.9931
 EELEC  =    -75475.8066  EHBOND  =         0.0000  RESTRAINT  =         0.0000
 EKCMT  =      6242.2747  VIRIAL  =      9297.0272  VOLUME     =    227532.6083
                                                    Density    =         0.9183
 DV/DL  =         0.4718
 ------------------------------------------------------------------------------

      R M S  F L U C T U A T I O N S

 NSTEP =     2000   TIME(PS) =     204.000  TEMP(K) =     1.70  PRESS =   129.3
 Etot   =        69.7105  EKtot   =        70.9492  EPtot      =        68.9553
 BOND   =         0.6231  ANGLE   =         1.4952  DIHED      =         0.6667
 1-4 NB =         0.2218  1-4 EEL =         0.6382  VDWAALS    =       112.6480
 EELEC  =       125.9895  EHBOND  =         0.0000  RESTRAINT  =         0.0000
 EKCMT  =        55.7810  VIRIAL  =       628.5358  VOLUME     =       744.5639
                                                    Density    =         0.0030
 DV/DL  =         2.4909
 ------------------------------------------------------------------------------

      DV/DL, AVERAGES OVER    1000 STEPS

 NSTEP =     2000   TIME(PS) =     204.000  TEMP(K) =     1.70  PRESS =     0.0
 Etot   =         0.0000  EKtot   =         0.0000  EPtot      =         0.4718
 BOND   =         0.0000  ANGLE   =         0.0000  DIHED      =         0.0000
 1-4 NB =         0.0000  1-4 EEL =       -29.0763  VDWAALS    =         0.0000
 EELEC  =        29.5481  EHBOND  =         0.0000  RESTRAINT  =         0.0000
 EKCMT  =         0.0000  VIRIAL  =         0.0000  VOLUME     =         0.0000
                                                    Density    =         0.0000
 DV/DL  =         0.4718
 ------------------------------------------------------------------------------

      A V E R A G E S   O V E R    1000 S T E P S

 NSTEP =   500000   TIME(PS) =    1200.000  TEMP(K) =   299.80  PRESS =   -39.9
 Etot   =    -54166.7583  EKtot   =     12485.2836  EPtot      =    -66652.0419
 BOND   =         1.2131  ANGLE   =         4.7093  DIHED      =         0.8315
 1-4 NB =         0.1342  1-4 EEL =        23.6737  VDWAALS    =      9958.5065
 EELEC  =    -76641.1102  EHBOND  =         0.0000  RESTRAINT  =         0.0000
 EKCMT  =      6255.6875  VIRIAL  =      6438.9147  VOLUME     =    212495.1421
                                                    Density    =         0.9833
 DV/DL  =         0.7639
 ------------------------------------------------------------------------------

      R M S  F L U C T U A T I O N S

 NSTEP =   500000   TIME(PS) =    1200.000  TEMP(K) =     1.90  PRESS =   122.4
 Etot   =       107.8598  EKtot   =        79.2909  EPtot      =        84.7146
 BOND   =         0.8851  ANGLE   =         1.4142  DIHED      =         0.6332
 1-4 NB =         0.1769  1-4 EEL =         0.6849  VDWAALS    =       106.0424
 EELEC  =       120.6617  EHBOND  =         0.0000  RESTRAINT  =         0.0000
 EKCMT  =        56.6476  VIRIAL  =       573.0048  VOLUME     =        53.9525
                                                    Density    =         0.0002
 DV/DL  =         3.2067
 ------------------------------------------------------------------------------

      A V E R A G E S   O V E R    1000 S T E P S

 NSTEP =   500000   TIME(PS) =    1200.000  TEMP(K) =   299.80  PRESS =   -39.9
 Etot   =    -54166.7583  EKtot   =     12485.2836  EPtot      =    -66652.0419
 BOND   =         1.2131  ANGLE   =         4.7093  DIHED      =         0.8315
 1-4 NB =         0.1342  1-4 EEL =        23.6737  VDWAALS    =      9958.5065
 EELEC  =    -76641.1102  EHBOND  =         0.0000  RESTRAINT  =         0.0000
 EKCMT  =      6255.6875  VIRIAL  =      6438.9147  VOLUME     =    212495.1421
                                                    Density    =         0.9833
 DV/DL  =         0.7639
 ------------------------------------------------------------------------------

      R M S  F L U C T U A T I O N S

 NSTEP =   500000   TIME(PS) =    1200.000  TEMP(K) =     1.90  PRESS =   122.4
 Etot   =       107.8598  EKtot   =        79.2909  EPtot      =        84.7146
 BOND   =         0.8851  ANGLE   =         1.4142  DIHED      =         0.6332
 1-4 NB =         0.1769  1-4 EEL =         0.6849  VDWAALS    =       106.0424
 EELEC  =       120.6617  EHBOND  =         0.0000  RESTRAINT  =         0.0000
 EKCMT  =        56.6476  VIRIAL  =       573.0048  VOLUME     =        53.9525
                                                    Density    =         0.0002
 DV/DL  =         3.2067
 ------------------------------------------------------------------------------

      DV/DL, AVERAGES OVER    1000 STEPS

 NSTEP =   500000   TIME(PS) =    1200.000  TEMP(K) =     1.90  PRESS =     0.0
 Etot   =         0.0000  EKtot   =         0.0000  EPtot      =         0.7639
 BOND   =         0.0000  ANGLE   =         0.0000  DIHED      =         0.0000
 1-4 NB =         0.0000  1-4 EEL =       -26.7514  VDWAALS    =         0.0000
 EELEC  =        27.5153  EHBOND  =         0.0000  RESTRAINT  =         0.0000
 EKCMT  =         0.0000  VIRIAL  =         0.0000  VOLUME     =         0.0000
                                                    Density    =         0.0000
 DV/DL  =         0.7639
 ------------------------------------------------------------------------------

      A V E R A G E S   O V E R  500000 S T E P S

 NSTEP =   500000   TIME(PS) =    1200.000  TEMP(K) =   300.04  PRESS =    -8.9
 Etot   =    -54080.8397  EKtot   =     12495.1591  EPtot      =    -66575.9988
 BOND   =         0.9257  ANGLE   =         4.8174  DIHED      =         1.1108
 1-4 NB =         0.3761  1-4 EEL =        30.7059  VDWAALS    =      9955.9877
 EELEC  =    -76569.9224  EHBOND  =         0.0000  RESTRAINT  =         0.0000
 EKCMT  =      6264.8840  VIRIAL  =      6307.7730  VOLUME     =    212748.3097
                                                    Density    =         0.9822
 DV/DL  =        -1.2530
 ------------------------------------------------------------------------------

      R M S  F L U C T U A T I O N S

 NSTEP =   500000   TIME(PS) =    1200.000  TEMP(K) =     2.10  PRESS =   144.9
 Etot   =       178.7401  EKtot   =        87.3041  EPtot      =       152.3167
 BOND   =         0.7574  ANGLE   =         1.7004  DIHED      =         0.7785
 1-4 NB =         0.3757  1-4 EEL =         5.4324  VDWAALS    =       128.4425
 EELEC  =       230.9026  EHBOND  =         0.0000  RESTRAINT  =         0.0000
 EKCMT  =        61.7244  VIRIAL  =       672.8859  VOLUME     =      1439.0644
                                                    Density    =         0.0063
 DV/DL  =         3.6753
 ------------------------------------------------------------------------------

      A V E R A G E S   O V E R  500000 S T E P S

 NSTEP =   500000   TIME(PS) =    1200.000  TEMP(K) =   300.04  PRESS =    -8.9
 Etot   =    -54080.8397  EKtot   =     12495.1591  EPtot      =    -66575.9988
 BOND   =         0.9257  ANGLE   =         4.8174  DIHED      =         1.1108
 1-4 NB =         0.3761  1-4 EEL =        30.7059  VDWAALS    =      9955.9877
 EELEC  =    -76569.9224  EHBOND  =         0.0000  RESTRAINT  =         0.0000
 EKCMT  =      6264.8840  VIRIAL  =      6307.7730  VOLUME     =    212748.3097
                                                    Density    =         0.9822
 DV/DL  =        -1.2530
 ------------------------------------------------------------------------------

      R M S  F L U C T U A T I O N S

 NSTEP =   500000   TIME(PS) =    1200.000  TEMP(K) =     2.10  PRESS =   144.9
 Etot   =       178.7401  EKtot   =        87.3041  EPtot      =       152.3167
 BOND   =         0.7574  ANGLE   =         1.7004  DIHED      =         0.7785
 1-4 NB =         0.3757  1-4 EEL =         5.4324  VDWAALS    =       128.4425
 EELEC  =       230.9026  EHBOND  =         0.0000  RESTRAINT  =         0.0000
 EKCMT  =        61.7244  VIRIAL  =       672.8859  VOLUME     =      1439.0644
                                                    Density    =         0.0063
 DV/DL  =         3.6753
 ------------------------------------------------------------------------------

      DV/DL, AVERAGES OVER  500000 STEPS

 NSTEP =   500000   TIME(PS) =    1200.000  TEMP(K) =     2.10  PRESS =     0.0
 Etot   =         0.0000  EKtot   =         0.0000  EPtot      =        -1.2530
 BOND   =         0.0000  ANGLE   =         0.0000  DIHED      =         0.0000
 1-4 NB =         0.0000  1-4 EEL =       -34.6979  VDWAALS    =         0.0000
 EELEC  =        33.4449  EHBOND  =         0.0000  RESTRAINT  =         0.0000
 EKCMT  =         0.0000  VIRIAL  =         0.0000  VOLUME     =         0.0000
                                                    Density    =         0.0000
 DV/DL  =        -1.2530
 ------------------------------------------------------------------------------
