-------------------------------------------------------
          Amber 20 PMEMD                              2020
          -------------------------------------------------------

  [-O]verwriting output

File Assignments:

 Here is the input file:

 &cntrl
   nstlim=500000, nscm=1000,
   ntx=1, irest=0, ntpr=1000,
   tempi=300.0, temp0=300.0, ntt=3, gamma_ln=2.0,

   ntb=1, igb=0, cut=10.0,
   dt=0.002, ig=-1,
   ntc=2, ntf=2,
   iwrap=0,
   ntwr=1000, ntwx=50000, ntave=1000,
   ioutfm=1, ntwv=-1,
   ifsc = 0, icfe=1,
   clambda=0.68392,
   timask1=':1',
   timask2=':2', crgmask = ':2',
/

Note: ig = -1. Setting random seed to   174618 based on wallclock time in
      microseconds.

--------------------------------------------------------------------------------
   1.  RESOURCE   USE:
--------------------------------------------------------------------------------

 getting box info from netcdf restart file
 NATOM  =      24 NTYPES =       6 NBONH =      16 MBONA  =       6
 NTHETH =      32 MTHETA =       4 NPHIH =      40 MPHIA  =       2
 NHPARM =       0 NPARM  =       0 NNB   =     102 NRES   =       2
 NBONA  =       6 NTHETA =       4 NPHIA =       2 NUMBND =       4
 NUMANG =       6 NPTRA  =       2 NATYP =       6 NPHB   =       1
 IFBOX  =       2 NMXRS  =      12 IFCAP =       0 NEXTRA =       0
 NCOPY  =       0

     BOX TYPE: TRUNCATED OCTAHEDRON

--------------------------------------------------------------------------------
   2.  CONTROL  DATA  FOR  THE  RUN
--------------------------------------------------------------------------------

default_name

General flags:
     imin    =       0, nmropt  =       0

Nature and format of input:
     ntx     =       1, irest   =       0, ntrx    =       1

Nature and format of output:
     ntxo    =       2, ntpr    =    1000, ntrx    =       1, ntwr    =    1000
     iwrap   =       0, ntwx    =   50000, ntwv    =      -1, ntwe    =       0
     ioutfm  =       1, ntwprt  =       0, idecomp =       0, rbornstat=      0

Potential function:
     ntf     =       2, ntb     =       1, igb     =       0, nsnb    =      25
     ipol    =       0, gbsa    =       0, iesp    =       0
     dielc   =   1.00000, cut     =  10.00000, intdiel =   1.00000

Frozen or restrained atoms:
     ibelly  =       0, ntr     =       0

Molecular dynamics:
     nstlim  =    500000, nscm    =      1000, nrespa  =         1
     t       =   0.00000, dt      =   0.00200, vlimit  =  -1.00000

Langevin dynamics temperature regulation:
     ig      =  174618
     temp0   = 300.00000, tempi   = 300.00000, gamma_ln=   2.00000

SHAKE:
     ntc     =       2, jfastw  =       0
     tol     =   0.00001

Free energy options:
     icfe    =       1, ifsc    =       0, klambda =       1
     clambda =  0.6839, scalpha =  0.5000, scbeta  = 12.0000
     sceeorder =       2
     dynlmb =  0.0000 logdvdl =       0

Ewald parameters:
     verbose =       0, ew_type =       0, nbflag  =       1, use_pme =       1
     vdwmeth =       1, eedmeth =       1, netfrc  =       1
     Box X =   67.054   Box Y =   67.054   Box Z =   67.054
     Alpha =  109.471   Beta  =  109.471   Gamma =  109.471
     NFFT1 =   64       NFFT2 =   64       NFFT3 =   64
     Cutoff=   10.000   Tol   =0.100E-04
     Ewald Coefficient =  0.27511
     Interpolation order =    4
     TI Mask 1 :1; matches     12 atoms
     TI Mask 2 :2; matches     12 atoms
     TI region 1:      12 atoms
     TI region 2:      12 atoms
Removing charge of      -0.6664 from atom      13
Removing charge of      -0.6664 from atom      14
Removing charge of      -0.0664 from atom      15
Removing charge of      -0.0664 from atom      16
Removing charge of       0.2792 from atom      17
Removing charge of       0.2802 from atom      18
Removing charge of       0.2802 from atom      19
Removing charge of       0.2792 from atom      20
Removing charge of       0.0898 from atom      21
Removing charge of       0.0837 from atom      22
Removing charge of       0.0898 from atom      23
Removing charge of       0.0837 from atom      24
Total charge of  -0.00000000 removed from      12 atoms
     Checking for mismatched coordinates.

--------------------------------------------------------------------------------
   3.  ATOMIC COORDINATES AND VELOCITIES
--------------------------------------------------------------------------------

default_name
 begin time read from input coords =     0.000 ps

 Number of triangulated 3-point waters found:        0

     Sum of charges for TI region  1 =  -0.00000000
     Skip neutralizing charges...

     Sum of charges for TI region  2 =   0.00000000
     Skip neutralizing charges...

--------------------------------------------------------------------------------
   4.  RESULTS
 NSTEP =        0   TIME(PS) =       0.000  TEMP(K) =   367.38  PRESS =     0.0
 Etot   =        14.9255  EKtot   =        10.2206  EPtot      =         4.7049
 BOND   =         0.0106  ANGLE   =         0.0501  DIHED      =         0.1109
 1-4 NB =         0.3035  1-4 EEL =        12.8353  VDWAALS    =        -0.0813
 EELEC  =        -8.5242  EHBOND  =         0.0000  RESTRAINT  =         0.0000
 DV/DL  =       -13.6392
 ------------------------------------------------------------------------------

      A V E R A G E S   O V E R    1000 S T E P S

 NSTEP =     1000   TIME(PS) =       2.000  TEMP(K) =   236.54  PRESS =     0.0
 Etot   =        16.5362  EKtot   =         6.5807  EPtot      =         9.9555
 BOND   =         0.6350  ANGLE   =         3.7080  DIHED      =         0.9635
 1-4 NB =         0.4026  1-4 EEL =        12.8411  VDWAALS    =        -0.0815
 EELEC  =        -8.5133  EHBOND  =         0.0000  RESTRAINT  =         0.0000
 DV/DL  =       -13.6923
 ------------------------------------------------------------------------------

      R M S  F L U C T U A T I O N S

 NSTEP =     1000   TIME(PS) =       2.000  TEMP(K) =    52.68  PRESS =     0.0
 Etot   =         1.9325  EKtot   =         1.4655  EPtot      =         1.4340
 BOND   =         0.4699  ANGLE   =         1.1989  DIHED      =         0.5877
 1-4 NB =         0.3300  1-4 EEL =         0.4041  VDWAALS    =         0.0143
 EELEC  =         0.4570  EHBOND  =         0.0000  RESTRAINT  =         0.0000
 DV/DL  =         0.7556
 ------------------------------------------------------------------------------

      A V E R A G E S   O V E R    1000 S T E P S

 NSTEP =     1000   TIME(PS) =       2.000  TEMP(K) =   236.54  PRESS =     0.0
 Etot   =        16.5362  EKtot   =         6.5807  EPtot      =         9.9555
 BOND   =         0.6350  ANGLE   =         3.7080  DIHED      =         0.9635
 1-4 NB =         0.4026  1-4 EEL =        12.8411  VDWAALS    =        -0.0815
 EELEC  =        -8.5133  EHBOND  =         0.0000  RESTRAINT  =         0.0000
 DV/DL  =       -13.6923
 ------------------------------------------------------------------------------

      R M S  F L U C T U A T I O N S

 NSTEP =     1000   TIME(PS) =       2.000  TEMP(K) =    52.68  PRESS =     0.0
 Etot   =         1.9325  EKtot   =         1.4655  EPtot      =         1.4340
 BOND   =         0.4699  ANGLE   =         1.1989  DIHED      =         0.5877
 1-4 NB =         0.3300  1-4 EEL =         0.4041  VDWAALS    =         0.0143
 EELEC  =         0.4570  EHBOND  =         0.0000  RESTRAINT  =         0.0000
 DV/DL  =         0.7556
 ------------------------------------------------------------------------------

      DV/DL, AVERAGES OVER    1000 STEPS

 NSTEP =     1000   TIME(PS) =       2.000  TEMP(K) =    52.68  PRESS =     0.0
 Etot   =         0.0000  EKtot   =         0.0000  EPtot      =       -13.6923
 BOND   =         0.0000  ANGLE   =         0.0000  DIHED      =         0.0000
 1-4 NB =         0.0000  1-4 EEL =       -40.6262  VDWAALS    =         0.0000
 EELEC  =        26.9339  EHBOND  =         0.0000  RESTRAINT  =         0.0000
 DV/DL  =       -13.6923
 ------------------------------------------------------------------------------

      A V E R A G E S   O V E R    1000 S T E P S

 NSTEP =     2000   TIME(PS) =       4.000  TEMP(K) =   308.95  PRESS =     0.0
 Etot   =        20.3388  EKtot   =         8.5952  EPtot      =        11.7436
 BOND   =         0.8964  ANGLE   =         5.2381  DIHED      =         0.9111
 1-4 NB =         0.4292  1-4 EEL =        12.7879  VDWAALS    =        -0.0797
 EELEC  =        -8.4393  EHBOND  =         0.0000  RESTRAINT  =         0.0000
 DV/DL  =       -13.7579
 ------------------------------------------------------------------------------

      R M S  F L U C T U A T I O N S

 NSTEP =     2000   TIME(PS) =       4.000  TEMP(K) =    59.95  PRESS =     0.0
 Etot   =         1.6002  EKtot   =         1.6679  EPtot      =         1.6022
 BOND   =         0.6508  ANGLE   =         1.4728  DIHED      =         0.5238
 1-4 NB =         0.2939  1-4 EEL =         0.6202  VDWAALS    =         0.0134
 EELEC  =         0.5697  EHBOND  =         0.0000  RESTRAINT  =         0.0000
 DV/DL  =         0.7424
 ------------------------------------------------------------------------------

      A V E R A G E S   O V E R    1000 S T E P S

 NSTEP =     2000   TIME(PS) =       4.000  TEMP(K) =   308.95  PRESS =     0.0
 Etot   =        20.3388  EKtot   =         8.5952  EPtot      =        11.7436
 BOND   =         0.8964  ANGLE   =         5.2381  DIHED      =         0.9111
 1-4 NB =         0.4292  1-4 EEL =        12.7879  VDWAALS    =        -0.0797
 EELEC  =        -8.4393  EHBOND  =         0.0000  RESTRAINT  =         0.0000
 DV/DL  =       -13.7579
 ------------------------------------------------------------------------------

      R M S  F L U C T U A T I O N S

 NSTEP =     2000   TIME(PS) =       4.000  TEMP(K) =    59.95  PRESS =     0.0
 Etot   =         1.6002  EKtot   =         1.6679  EPtot      =         1.6022
 BOND   =         0.6508  ANGLE   =         1.4728  DIHED      =         0.5238
 1-4 NB =         0.2939  1-4 EEL =         0.6202  VDWAALS    =         0.0134
 EELEC  =         0.5697  EHBOND  =         0.0000  RESTRAINT  =         0.0000
 DV/DL  =         0.7424
 ------------------------------------------------------------------------------

      DV/DL, AVERAGES OVER    1000 STEPS

 NSTEP =     2000   TIME(PS) =       4.000  TEMP(K) =    59.95  PRESS =     0.0
 Etot   =         0.0000  EKtot   =         0.0000  EPtot      =       -13.7579
 BOND   =         0.0000  ANGLE   =         0.0000  DIHED      =         0.0000
 1-4 NB =         0.0000  1-4 EEL =       -40.4578  VDWAALS    =         0.0000
 EELEC  =        26.6999  EHBOND  =         0.0000  RESTRAINT  =         0.0000
 DV/DL  =       -13.7579
 ------------------------------------------------------------------------------

      A V E R A G E S   O V E R    1000 S T E P S

 NSTEP =   500000   TIME(PS) =    1000.000  TEMP(K) =   283.63  PRESS =     0.0
 Etot   =        19.1552  EKtot   =         7.8909  EPtot      =        11.2643
 BOND   =         0.8113  ANGLE   =         4.5274  DIHED      =         1.4543
 1-4 NB =         0.5081  1-4 EEL =        11.7800  VDWAALS    =        -0.0856
 EELEC  =        -7.7314  EHBOND  =         0.0000  RESTRAINT  =         0.0000
 DV/DL  =       -12.8089
 ------------------------------------------------------------------------------

      R M S  F L U C T U A T I O N S

 NSTEP =   500000   TIME(PS) =    1000.000  TEMP(K) =    67.38  PRESS =     0.0
 Etot   =         2.3376  EKtot   =         1.8747  EPtot      =         1.7928
 BOND   =         0.6126  ANGLE   =         1.3751  DIHED      =         0.9182
 1-4 NB =         0.5357  1-4 EEL =         1.6781  VDWAALS    =         0.0272
 EELEC  =         1.8184  EHBOND  =         0.0000  RESTRAINT  =         0.0000
 DV/DL  =         0.6576
 ------------------------------------------------------------------------------

      A V E R A G E S   O V E R    1000 S T E P S

 NSTEP =   500000   TIME(PS) =    1000.000  TEMP(K) =   283.63  PRESS =     0.0
 Etot   =        19.1552  EKtot   =         7.8909  EPtot      =        11.2643
 BOND   =         0.8113  ANGLE   =         4.5274  DIHED      =         1.4543
 1-4 NB =         0.5081  1-4 EEL =        11.7800  VDWAALS    =        -0.0856
 EELEC  =        -7.7314  EHBOND  =         0.0000  RESTRAINT  =         0.0000
 DV/DL  =       -12.8089
 ------------------------------------------------------------------------------

      R M S  F L U C T U A T I O N S

 NSTEP =   500000   TIME(PS) =    1000.000  TEMP(K) =    67.38  PRESS =     0.0
 Etot   =         2.3376  EKtot   =         1.8747  EPtot      =         1.7928
 BOND   =         0.6126  ANGLE   =         1.3751  DIHED      =         0.9182
 1-4 NB =         0.5357  1-4 EEL =         1.6781  VDWAALS    =         0.0272
 EELEC  =         1.8184  EHBOND  =         0.0000  RESTRAINT  =         0.0000
 DV/DL  =         0.6576
 ------------------------------------------------------------------------------

      DV/DL, AVERAGES OVER    1000 STEPS

 NSTEP =   500000   TIME(PS) =    1000.000  TEMP(K) =    67.38  PRESS =     0.0
 Etot   =         0.0000  EKtot   =         0.0000  EPtot      =       -12.8089
 BOND   =         0.0000  ANGLE   =         0.0000  DIHED      =         0.0000
 1-4 NB =         0.0000  1-4 EEL =       -37.2690  VDWAALS    =         0.0000
 EELEC  =        24.4601  EHBOND  =         0.0000  RESTRAINT  =         0.0000
 DV/DL  =       -12.8089
 ------------------------------------------------------------------------------

      A V E R A G E S   O V E R  500000 S T E P S

 NSTEP =   500000   TIME(PS) =    1000.000  TEMP(K) =   298.28  PRESS =     0.0
 Etot   =        19.5799  EKtot   =         8.2984  EPtot      =        11.2814
 BOND   =         0.9429  ANGLE   =         4.8483  DIHED      =         1.1037
 1-4 NB =         0.2988  1-4 EEL =        10.7794  VDWAALS    =        -0.0754
 EELEC  =        -6.6164  EHBOND  =         0.0000  RESTRAINT  =         0.0000
 DV/DL  =       -13.1710
 ------------------------------------------------------------------------------

      R M S  F L U C T U A T I O N S

 NSTEP =   500000   TIME(PS) =    1000.000  TEMP(K) =    80.09  PRESS =     0.0
 Etot   =         3.0677  EKtot   =         2.2280  EPtot      =         2.1106
 BOND   =         0.7707  ANGLE   =         1.7346  DIHED      =         0.7723
 1-4 NB =         0.3330  1-4 EEL =         1.8275  VDWAALS    =         0.0372
 EELEC  =         1.8925  EHBOND  =         0.0000  RESTRAINT  =         0.0000
 DV/DL  =         0.6830
 ------------------------------------------------------------------------------

      A V E R A G E S   O V E R  500000 S T E P S

 NSTEP =   500000   TIME(PS) =    1000.000  TEMP(K) =   298.28  PRESS =     0.0
 Etot   =        19.5799  EKtot   =         8.2984  EPtot      =        11.2814
 BOND   =         0.9429  ANGLE   =         4.8483  DIHED      =         1.1037
 1-4 NB =         0.2988  1-4 EEL =        10.7794  VDWAALS    =        -0.0754
 EELEC  =        -6.6164  EHBOND  =         0.0000  RESTRAINT  =         0.0000
 DV/DL  =       -13.1710
 ------------------------------------------------------------------------------

      R M S  F L U C T U A T I O N S

 NSTEP =   500000   TIME(PS) =    1000.000  TEMP(K) =    80.09  PRESS =     0.0
 Etot   =         3.0677  EKtot   =         2.2280  EPtot      =         2.1106
 BOND   =         0.7707  ANGLE   =         1.7346  DIHED      =         0.7723
 1-4 NB =         0.3330  1-4 EEL =         1.8275  VDWAALS    =         0.0372
 EELEC  =         1.8925  EHBOND  =         0.0000  RESTRAINT  =         0.0000
 DV/DL  =         0.6830
 ------------------------------------------------------------------------------

      DV/DL, AVERAGES OVER  500000 STEPS

 NSTEP =   500000   TIME(PS) =    1000.000  TEMP(K) =    80.09  PRESS =     0.0
 Etot   =         0.0000  EKtot   =         0.0000  EPtot      =       -13.1710
 BOND   =         0.0000  ANGLE   =         0.0000  DIHED      =         0.0000
 1-4 NB =         0.0000  1-4 EEL =       -34.1035  VDWAALS    =         0.0000
 EELEC  =        20.9325  EHBOND  =         0.0000  RESTRAINT  =         0.0000
 DV/DL  =       -13.1710
 ------------------------------------------------------------------------------
