-------------------------------------------------------
          Amber 20 PMEMD                              2020
          -------------------------------------------------------

  [-O]verwriting output

File Assignments:

 Here is the input file:

 &cntrl
   nstlim=500000, nscm=1000,
   ntx=1, irest=0, ntpr=1000,
   tempi=300.0, temp0=300.0, ntt=3, gamma_ln=2.0,

   ntb=1, igb=0, cut=10.0,
   dt=0.002, ig=-1,
   ntc=2, ntf=2,
   iwrap=0,
   ntwr=1000, ntwx=50000, ntave=1000,
   ioutfm=1, ntwv=-1,
   ifsc = 0, icfe=1,
   clambda=0.56262,
   timask1=':1',
   timask2=':2', crgmask = ':2',
/

Note: ig = -1. Setting random seed to   568672 based on wallclock time in
      microseconds.

--------------------------------------------------------------------------------
   1.  RESOURCE   USE:
--------------------------------------------------------------------------------

 getting box info from netcdf restart file
 NATOM  =      24 NTYPES =       6 NBONH =      16 MBONA  =       6
 NTHETH =      32 MTHETA =       4 NPHIH =      40 MPHIA  =       2
 NHPARM =       0 NPARM  =       0 NNB   =     102 NRES   =       2
 NBONA  =       6 NTHETA =       4 NPHIA =       2 NUMBND =       4
 NUMANG =       6 NPTRA  =       2 NATYP =       6 NPHB   =       1
 IFBOX  =       2 NMXRS  =      12 IFCAP =       0 NEXTRA =       0
 NCOPY  =       0

     BOX TYPE: TRUNCATED OCTAHEDRON

--------------------------------------------------------------------------------
   2.  CONTROL  DATA  FOR  THE  RUN
--------------------------------------------------------------------------------

default_name

General flags:
     imin    =       0, nmropt  =       0

Nature and format of input:
     ntx     =       1, irest   =       0, ntrx    =       1

Nature and format of output:
     ntxo    =       2, ntpr    =    1000, ntrx    =       1, ntwr    =    1000
     iwrap   =       0, ntwx    =   50000, ntwv    =      -1, ntwe    =       0
     ioutfm  =       1, ntwprt  =       0, idecomp =       0, rbornstat=      0

Potential function:
     ntf     =       2, ntb     =       1, igb     =       0, nsnb    =      25
     ipol    =       0, gbsa    =       0, iesp    =       0
     dielc   =   1.00000, cut     =  10.00000, intdiel =   1.00000

Frozen or restrained atoms:
     ibelly  =       0, ntr     =       0

Molecular dynamics:
     nstlim  =    500000, nscm    =      1000, nrespa  =         1
     t       =   0.00000, dt      =   0.00200, vlimit  =  -1.00000

Langevin dynamics temperature regulation:
     ig      =  568672
     temp0   = 300.00000, tempi   = 300.00000, gamma_ln=   2.00000

SHAKE:
     ntc     =       2, jfastw  =       0
     tol     =   0.00001

Free energy options:
     icfe    =       1, ifsc    =       0, klambda =       1
     clambda =  0.5626, scalpha =  0.5000, scbeta  = 12.0000
     sceeorder =       2
     dynlmb =  0.0000 logdvdl =       0

Ewald parameters:
     verbose =       0, ew_type =       0, nbflag  =       1, use_pme =       1
     vdwmeth =       1, eedmeth =       1, netfrc  =       1
     Box X =   67.054   Box Y =   67.054   Box Z =   67.054
     Alpha =  109.471   Beta  =  109.471   Gamma =  109.471
     NFFT1 =   64       NFFT2 =   64       NFFT3 =   64
     Cutoff=   10.000   Tol   =0.100E-04
     Ewald Coefficient =  0.27511
     Interpolation order =    4
     TI Mask 1 :1; matches     12 atoms
     TI Mask 2 :2; matches     12 atoms
     TI region 1:      12 atoms
     TI region 2:      12 atoms
Removing charge of      -0.6664 from atom      13
Removing charge of      -0.6664 from atom      14
Removing charge of      -0.0664 from atom      15
Removing charge of      -0.0664 from atom      16
Removing charge of       0.2792 from atom      17
Removing charge of       0.2802 from atom      18
Removing charge of       0.2802 from atom      19
Removing charge of       0.2792 from atom      20
Removing charge of       0.0898 from atom      21
Removing charge of       0.0837 from atom      22
Removing charge of       0.0898 from atom      23
Removing charge of       0.0837 from atom      24
Total charge of  -0.00000000 removed from      12 atoms
     Checking for mismatched coordinates.

--------------------------------------------------------------------------------
   3.  ATOMIC COORDINATES AND VELOCITIES
--------------------------------------------------------------------------------

default_name
 begin time read from input coords =     0.000 ps

 Number of triangulated 3-point waters found:        0

     Sum of charges for TI region  1 =  -0.00000000
     Skip neutralizing charges...

     Sum of charges for TI region  2 =   0.00000000
     Skip neutralizing charges...

--------------------------------------------------------------------------------
   4.  RESULTS
 NSTEP =        0   TIME(PS) =       0.000  TEMP(K) =   301.25  PRESS =     0.0
 Etot   =        14.7364  EKtot   =         8.3810  EPtot      =         6.3553
 BOND   =         0.0115  ANGLE   =         0.0517  DIHED      =         0.1502
 1-4 NB =         0.3161  1-4 EEL =        17.7275  VDWAALS    =        -0.0825
 EELEC  =       -11.8191  EHBOND  =         0.0000  RESTRAINT  =         0.0000
 DV/DL  =       -13.5085
 ------------------------------------------------------------------------------

      A V E R A G E S   O V E R    1000 S T E P S

 NSTEP =     1000   TIME(PS) =       2.000  TEMP(K) =   288.94  PRESS =     0.0
 Etot   =        20.7272  EKtot   =         8.0386  EPtot      =        12.6885
 BOND   =         0.7882  ANGLE   =         4.5965  DIHED      =         0.9619
 1-4 NB =         0.4836  1-4 EEL =        17.5494  VDWAALS    =        -0.0800
 EELEC  =       -11.6110  EHBOND  =         0.0000  RESTRAINT  =         0.0000
 DV/DL  =       -13.5772
 ------------------------------------------------------------------------------

      R M S  F L U C T U A T I O N S

 NSTEP =     1000   TIME(PS) =       2.000  TEMP(K) =    96.30  PRESS =     0.0
 Etot   =         3.6806  EKtot   =         2.6792  EPtot      =         2.0161
 BOND   =         0.7038  ANGLE   =         1.6922  DIHED      =         0.6488
 1-4 NB =         0.2953  1-4 EEL =         1.1633  VDWAALS    =         0.0153
 EELEC  =         1.1071  EHBOND  =         0.0000  RESTRAINT  =         0.0000
 DV/DL  =         0.6020
 ------------------------------------------------------------------------------

      A V E R A G E S   O V E R    1000 S T E P S

 NSTEP =     1000   TIME(PS) =       2.000  TEMP(K) =   288.94  PRESS =     0.0
 Etot   =        20.7272  EKtot   =         8.0386  EPtot      =        12.6885
 BOND   =         0.7882  ANGLE   =         4.5965  DIHED      =         0.9619
 1-4 NB =         0.4836  1-4 EEL =        17.5494  VDWAALS    =        -0.0800
 EELEC  =       -11.6110  EHBOND  =         0.0000  RESTRAINT  =         0.0000
 DV/DL  =       -13.5772
 ------------------------------------------------------------------------------

      R M S  F L U C T U A T I O N S

 NSTEP =     1000   TIME(PS) =       2.000  TEMP(K) =    96.30  PRESS =     0.0
 Etot   =         3.6806  EKtot   =         2.6792  EPtot      =         2.0161
 BOND   =         0.7038  ANGLE   =         1.6922  DIHED      =         0.6488
 1-4 NB =         0.2953  1-4 EEL =         1.1633  VDWAALS    =         0.0153
 EELEC  =         1.1071  EHBOND  =         0.0000  RESTRAINT  =         0.0000
 DV/DL  =         0.6020
 ------------------------------------------------------------------------------

      DV/DL, AVERAGES OVER    1000 STEPS

 NSTEP =     1000   TIME(PS) =       2.000  TEMP(K) =    96.30  PRESS =     0.0
 Etot   =         0.0000  EKtot   =         0.0000  EPtot      =       -13.5772
 BOND   =         0.0000  ANGLE   =         0.0000  DIHED      =         0.0000
 1-4 NB =         0.0000  1-4 EEL =       -40.1238  VDWAALS    =         0.0000
 EELEC  =        26.5466  EHBOND  =         0.0000  RESTRAINT  =         0.0000
 DV/DL  =       -13.5772
 ------------------------------------------------------------------------------

      A V E R A G E S   O V E R    1000 S T E P S

 NSTEP =     2000   TIME(PS) =       4.000  TEMP(K) =   272.37  PRESS =     0.0
 Etot   =        19.7778  EKtot   =         7.5775  EPtot      =        12.2003
 BOND   =         0.7749  ANGLE   =         4.0631  DIHED      =         1.0881
 1-4 NB =         0.4102  1-4 EEL =        17.6263  VDWAALS    =        -0.0799
 EELEC  =       -11.6824  EHBOND  =         0.0000  RESTRAINT  =         0.0000
 DV/DL  =       -13.5897
 ------------------------------------------------------------------------------

      R M S  F L U C T U A T I O N S

 NSTEP =     2000   TIME(PS) =       4.000  TEMP(K) =    65.72  PRESS =     0.0
 Etot   =         2.1161  EKtot   =         1.8284  EPtot      =         1.5719
 BOND   =         0.6117  ANGLE   =         1.2541  DIHED      =         0.7807
 1-4 NB =         0.2850  1-4 EEL =         0.8234  VDWAALS    =         0.0144
 EELEC  =         0.8349  EHBOND  =         0.0000  RESTRAINT  =         0.0000
 DV/DL  =         0.7467
 ------------------------------------------------------------------------------

      A V E R A G E S   O V E R    1000 S T E P S

 NSTEP =     2000   TIME(PS) =       4.000  TEMP(K) =   272.37  PRESS =     0.0
 Etot   =        19.7778  EKtot   =         7.5775  EPtot      =        12.2003
 BOND   =         0.7749  ANGLE   =         4.0631  DIHED      =         1.0881
 1-4 NB =         0.4102  1-4 EEL =        17.6263  VDWAALS    =        -0.0799
 EELEC  =       -11.6824  EHBOND  =         0.0000  RESTRAINT  =         0.0000
 DV/DL  =       -13.5897
 ------------------------------------------------------------------------------

      R M S  F L U C T U A T I O N S

 NSTEP =     2000   TIME(PS) =       4.000  TEMP(K) =    65.72  PRESS =     0.0
 Etot   =         2.1161  EKtot   =         1.8284  EPtot      =         1.5719
 BOND   =         0.6117  ANGLE   =         1.2541  DIHED      =         0.7807
 1-4 NB =         0.2850  1-4 EEL =         0.8234  VDWAALS    =         0.0144
 EELEC  =         0.8349  EHBOND  =         0.0000  RESTRAINT  =         0.0000
 DV/DL  =         0.7467
 ------------------------------------------------------------------------------

      DV/DL, AVERAGES OVER    1000 STEPS

 NSTEP =     2000   TIME(PS) =       4.000  TEMP(K) =    65.72  PRESS =     0.0
 Etot   =         0.0000  EKtot   =         0.0000  EPtot      =       -13.5897
 BOND   =         0.0000  ANGLE   =         0.0000  DIHED      =         0.0000
 1-4 NB =         0.0000  1-4 EEL =       -40.2996  VDWAALS    =         0.0000
 EELEC  =        26.7099  EHBOND  =         0.0000  RESTRAINT  =         0.0000
 DV/DL  =       -13.5897
 ------------------------------------------------------------------------------

      A V E R A G E S   O V E R    1000 S T E P S

 NSTEP =   500000   TIME(PS) =    1000.000  TEMP(K) =   304.29  PRESS =     0.0
 Etot   =        21.0609  EKtot   =         8.4656  EPtot      =        12.5952
 BOND   =         0.7715  ANGLE   =         5.0811  DIHED      =         0.8044
 1-4 NB =         0.1409  1-4 EEL =        12.2666  VDWAALS    =        -0.0493
 EELEC  =        -6.4200  EHBOND  =         0.0000  RESTRAINT  =         0.0000
 DV/DL  =       -13.3675
 ------------------------------------------------------------------------------

      R M S  F L U C T U A T I O N S

 NSTEP =   500000   TIME(PS) =    1000.000  TEMP(K) =    71.87  PRESS =     0.0
 Etot   =         2.5438  EKtot   =         1.9994  EPtot      =         1.8438
 BOND   =         0.6641  ANGLE   =         1.6066  DIHED      =         0.4106
 1-4 NB =         0.1776  1-4 EEL =         0.2685  VDWAALS    =         0.0070
 EELEC  =         0.1712  EHBOND  =         0.0000  RESTRAINT  =         0.0000
 DV/DL  =         0.4301
 ------------------------------------------------------------------------------

      A V E R A G E S   O V E R    1000 S T E P S

 NSTEP =   500000   TIME(PS) =    1000.000  TEMP(K) =   304.29  PRESS =     0.0
 Etot   =        21.0609  EKtot   =         8.4656  EPtot      =        12.5952
 BOND   =         0.7715  ANGLE   =         5.0811  DIHED      =         0.8044
 1-4 NB =         0.1409  1-4 EEL =        12.2666  VDWAALS    =        -0.0493
 EELEC  =        -6.4200  EHBOND  =         0.0000  RESTRAINT  =         0.0000
 DV/DL  =       -13.3675
 ------------------------------------------------------------------------------

      R M S  F L U C T U A T I O N S

 NSTEP =   500000   TIME(PS) =    1000.000  TEMP(K) =    71.87  PRESS =     0.0
 Etot   =         2.5438  EKtot   =         1.9994  EPtot      =         1.8438
 BOND   =         0.6641  ANGLE   =         1.6066  DIHED      =         0.4106
 1-4 NB =         0.1776  1-4 EEL =         0.2685  VDWAALS    =         0.0070
 EELEC  =         0.1712  EHBOND  =         0.0000  RESTRAINT  =         0.0000
 DV/DL  =         0.4301
 ------------------------------------------------------------------------------

      DV/DL, AVERAGES OVER    1000 STEPS

 NSTEP =   500000   TIME(PS) =    1000.000  TEMP(K) =    71.87  PRESS =     0.0
 Etot   =         0.0000  EKtot   =         0.0000  EPtot      =       -13.3675
 BOND   =         0.0000  ANGLE   =         0.0000  DIHED      =         0.0000
 1-4 NB =         0.0000  1-4 EEL =       -28.0457  VDWAALS    =         0.0000
 EELEC  =        14.6782  EHBOND  =         0.0000  RESTRAINT  =         0.0000
 DV/DL  =       -13.3675
 ------------------------------------------------------------------------------

      A V E R A G E S   O V E R  500000 S T E P S

 NSTEP =   500000   TIME(PS) =    1000.000  TEMP(K) =   300.57  PRESS =     0.0
 Etot   =        21.4135  EKtot   =         8.3620  EPtot      =        13.0515
 BOND   =         0.9470  ANGLE   =         4.8939  DIHED      =         1.1651
 1-4 NB =         0.3726  1-4 EEL =        15.9987  VDWAALS    =        -0.0840
 EELEC  =       -10.2417  EHBOND  =         0.0000  RESTRAINT  =         0.0000
 DV/DL  =       -13.1623
 ------------------------------------------------------------------------------

      R M S  F L U C T U A T I O N S

 NSTEP =   500000   TIME(PS) =    1000.000  TEMP(K) =    80.17  PRESS =     0.0
 Etot   =         3.0732  EKtot   =         2.2305  EPtot      =         2.1428
 BOND   =         0.7731  ANGLE   =         1.7286  DIHED      =         0.8246
 1-4 NB =         0.3693  1-4 EEL =         2.4685  VDWAALS    =         0.0338
 EELEC  =         2.5176  EHBOND  =         0.0000  RESTRAINT  =         0.0000
 DV/DL  =         0.7855
 ------------------------------------------------------------------------------

      A V E R A G E S   O V E R  500000 S T E P S

 NSTEP =   500000   TIME(PS) =    1000.000  TEMP(K) =   300.57  PRESS =     0.0
 Etot   =        21.4135  EKtot   =         8.3620  EPtot      =        13.0515
 BOND   =         0.9470  ANGLE   =         4.8939  DIHED      =         1.1651
 1-4 NB =         0.3726  1-4 EEL =        15.9987  VDWAALS    =        -0.0840
 EELEC  =       -10.2417  EHBOND  =         0.0000  RESTRAINT  =         0.0000
 DV/DL  =       -13.1623
 ------------------------------------------------------------------------------

      R M S  F L U C T U A T I O N S

 NSTEP =   500000   TIME(PS) =    1000.000  TEMP(K) =    80.17  PRESS =     0.0
 Etot   =         3.0732  EKtot   =         2.2305  EPtot      =         2.1428
 BOND   =         0.7731  ANGLE   =         1.7286  DIHED      =         0.8246
 1-4 NB =         0.3693  1-4 EEL =         2.4685  VDWAALS    =         0.0338
 EELEC  =         2.5176  EHBOND  =         0.0000  RESTRAINT  =         0.0000
 DV/DL  =         0.7855
 ------------------------------------------------------------------------------

      DV/DL, AVERAGES OVER  500000 STEPS

 NSTEP =   500000   TIME(PS) =    1000.000  TEMP(K) =    80.17  PRESS =     0.0
 Etot   =         0.0000  EKtot   =         0.0000  EPtot      =       -13.1623
 BOND   =         0.0000  ANGLE   =         0.0000  DIHED      =         0.0000
 1-4 NB =         0.0000  1-4 EEL =       -36.5784  VDWAALS    =         0.0000
 EELEC  =        23.4161  EHBOND  =         0.0000  RESTRAINT  =         0.0000
 DV/DL  =       -13.1623
 ------------------------------------------------------------------------------
