-------------------------------------------------------
          Amber 20 PMEMD                              2020
          -------------------------------------------------------

  [-O]verwriting output

File Assignments:

 Here is the input file:

 &cntrl
   nstlim=500000, nscm=1000,
   ntx=1, irest=0, ntpr=1000,
   tempi=300.0, temp0=300.0, ntt=3, gamma_ln=2.0,

   ntb=1, igb=0, cut=10.0,
   dt=0.002, ig=-1,
   ntc=2, ntf=2,
   iwrap=0,
   ntwr=1000, ntwx=50000, ntave=1000,
   ioutfm=1, ntwv=-1,
   ifsc = 0, icfe=1,
   clambda=0.00922,
   timask1=':1',
   timask2=':2', crgmask = ':2',
/

Note: ig = -1. Setting random seed to   303842 based on wallclock time in
      microseconds.

--------------------------------------------------------------------------------
   1.  RESOURCE   USE:
--------------------------------------------------------------------------------

 getting box info from netcdf restart file
 NATOM  =      24 NTYPES =       6 NBONH =      16 MBONA  =       6
 NTHETH =      32 MTHETA =       4 NPHIH =      40 MPHIA  =       2
 NHPARM =       0 NPARM  =       0 NNB   =     102 NRES   =       2
 NBONA  =       6 NTHETA =       4 NPHIA =       2 NUMBND =       4
 NUMANG =       6 NPTRA  =       2 NATYP =       6 NPHB   =       1
 IFBOX  =       2 NMXRS  =      12 IFCAP =       0 NEXTRA =       0
 NCOPY  =       0

     BOX TYPE: TRUNCATED OCTAHEDRON

--------------------------------------------------------------------------------
   2.  CONTROL  DATA  FOR  THE  RUN
--------------------------------------------------------------------------------

default_name

General flags:
     imin    =       0, nmropt  =       0

Nature and format of input:
     ntx     =       1, irest   =       0, ntrx    =       1

Nature and format of output:
     ntxo    =       2, ntpr    =    1000, ntrx    =       1, ntwr    =    1000
     iwrap   =       0, ntwx    =   50000, ntwv    =      -1, ntwe    =       0
     ioutfm  =       1, ntwprt  =       0, idecomp =       0, rbornstat=      0

Potential function:
     ntf     =       2, ntb     =       1, igb     =       0, nsnb    =      25
     ipol    =       0, gbsa    =       0, iesp    =       0
     dielc   =   1.00000, cut     =  10.00000, intdiel =   1.00000

Frozen or restrained atoms:
     ibelly  =       0, ntr     =       0

Molecular dynamics:
     nstlim  =    500000, nscm    =      1000, nrespa  =         1
     t       =   0.00000, dt      =   0.00200, vlimit  =  -1.00000

Langevin dynamics temperature regulation:
     ig      =  303842
     temp0   = 300.00000, tempi   = 300.00000, gamma_ln=   2.00000

SHAKE:
     ntc     =       2, jfastw  =       0
     tol     =   0.00001

Free energy options:
     icfe    =       1, ifsc    =       0, klambda =       1
     clambda =  0.0092, scalpha =  0.5000, scbeta  = 12.0000
     sceeorder =       2
     dynlmb =  0.0000 logdvdl =       0

Ewald parameters:
     verbose =       0, ew_type =       0, nbflag  =       1, use_pme =       1
     vdwmeth =       1, eedmeth =       1, netfrc  =       1
     Box X =   67.054   Box Y =   67.054   Box Z =   67.054
     Alpha =  109.471   Beta  =  109.471   Gamma =  109.471
     NFFT1 =   64       NFFT2 =   64       NFFT3 =   64
     Cutoff=   10.000   Tol   =0.100E-04
     Ewald Coefficient =  0.27511
     Interpolation order =    4
     TI Mask 1 :1; matches     12 atoms
     TI Mask 2 :2; matches     12 atoms
     TI region 1:      12 atoms
     TI region 2:      12 atoms
Removing charge of      -0.6664 from atom      13
Removing charge of      -0.6664 from atom      14
Removing charge of      -0.0664 from atom      15
Removing charge of      -0.0664 from atom      16
Removing charge of       0.2792 from atom      17
Removing charge of       0.2802 from atom      18
Removing charge of       0.2802 from atom      19
Removing charge of       0.2792 from atom      20
Removing charge of       0.0898 from atom      21
Removing charge of       0.0837 from atom      22
Removing charge of       0.0898 from atom      23
Removing charge of       0.0837 from atom      24
Total charge of  -0.00000000 removed from      12 atoms
     Checking for mismatched coordinates.

--------------------------------------------------------------------------------
   3.  ATOMIC COORDINATES AND VELOCITIES
--------------------------------------------------------------------------------

default_name
 begin time read from input coords =     0.000 ps

 Number of triangulated 3-point waters found:        0

     Sum of charges for TI region  1 =  -0.00000000
     Skip neutralizing charges...

     Sum of charges for TI region  2 =   0.00000000
     Skip neutralizing charges...

--------------------------------------------------------------------------------
   4.  RESULTS
 NSTEP =        0   TIME(PS) =       0.000  TEMP(K) =   313.09  PRESS =     0.0
 Etot   =        22.4177  EKtot   =         8.7103  EPtot      =        13.7074
 BOND   =         0.0222  ANGLE   =         0.1397  DIHED      =         0.3913
 1-4 NB =         0.3984  1-4 EEL =        40.0924  VDWAALS    =        -0.0885
 EELEC  =       -27.2482  EHBOND  =         0.0000  RESTRAINT  =         0.0000
 DV/DL  =       -12.9638
 ------------------------------------------------------------------------------

      A V E R A G E S   O V E R    1000 S T E P S

 NSTEP =     1000   TIME(PS) =       2.000  TEMP(K) =   281.63  PRESS =     0.0
 Etot   =        27.8089  EKtot   =         7.8353  EPtot      =        19.9737
 BOND   =         0.7100  ANGLE   =         4.7129  DIHED      =         1.1691
 1-4 NB =         0.5227  1-4 EEL =        39.5427  VDWAALS    =        -0.0812
 EELEC  =       -26.6025  EHBOND  =         0.0000  RESTRAINT  =         0.0000
 DV/DL  =       -13.0606
 ------------------------------------------------------------------------------

      R M S  F L U C T U A T I O N S

 NSTEP =     1000   TIME(PS) =       2.000  TEMP(K) =    94.32  PRESS =     0.0
 Etot   =         4.4638  EKtot   =         2.6242  EPtot      =         2.7746
 BOND   =         0.5778  ANGLE   =         2.3281  DIHED      =         0.7578
 1-4 NB =         0.3543  1-4 EEL =         2.1262  VDWAALS    =         0.0150
 EELEC  =         2.3559  EHBOND  =         0.0000  RESTRAINT  =         0.0000
 DV/DL  =         0.7955
 ------------------------------------------------------------------------------

      A V E R A G E S   O V E R    1000 S T E P S

 NSTEP =     1000   TIME(PS) =       2.000  TEMP(K) =   281.63  PRESS =     0.0
 Etot   =        27.8089  EKtot   =         7.8353  EPtot      =        19.9737
 BOND   =         0.7100  ANGLE   =         4.7129  DIHED      =         1.1691
 1-4 NB =         0.5227  1-4 EEL =        39.5427  VDWAALS    =        -0.0812
 EELEC  =       -26.6025  EHBOND  =         0.0000  RESTRAINT  =         0.0000
 DV/DL  =       -13.0606
 ------------------------------------------------------------------------------

      R M S  F L U C T U A T I O N S

 NSTEP =     1000   TIME(PS) =       2.000  TEMP(K) =    94.32  PRESS =     0.0
 Etot   =         4.4638  EKtot   =         2.6242  EPtot      =         2.7746
 BOND   =         0.5778  ANGLE   =         2.3281  DIHED      =         0.7578
 1-4 NB =         0.3543  1-4 EEL =         2.1262  VDWAALS    =         0.0150
 EELEC  =         2.3559  EHBOND  =         0.0000  RESTRAINT  =         0.0000
 DV/DL  =         0.7955
 ------------------------------------------------------------------------------

      DV/DL, AVERAGES OVER    1000 STEPS

 NSTEP =     1000   TIME(PS) =       2.000  TEMP(K) =    94.32  PRESS =     0.0
 Etot   =         0.0000  EKtot   =         0.0000  EPtot      =       -13.0606
 BOND   =         0.0000  ANGLE   =         0.0000  DIHED      =         0.0000
 1-4 NB =         0.0000  1-4 EEL =       -39.9107  VDWAALS    =         0.0000
 EELEC  =        26.8501  EHBOND  =         0.0000  RESTRAINT  =         0.0000
 DV/DL  =       -13.0606
 ------------------------------------------------------------------------------

      A V E R A G E S   O V E R    1000 S T E P S

 NSTEP =     2000   TIME(PS) =       4.000  TEMP(K) =   316.82  PRESS =     0.0
 Etot   =        29.8711  EKtot   =         8.8142  EPtot      =        21.0569
 BOND   =         0.9613  ANGLE   =         5.3134  DIHED      =         1.3233
 1-4 NB =         0.5323  1-4 EEL =        39.3486  VDWAALS    =        -0.0802
 EELEC  =       -26.3418  EHBOND  =         0.0000  RESTRAINT  =         0.0000
 DV/DL  =       -13.1279
 ------------------------------------------------------------------------------

      R M S  F L U C T U A T I O N S

 NSTEP =     2000   TIME(PS) =       4.000  TEMP(K) =    59.81  PRESS =     0.0
 Etot   =         1.6770  EKtot   =         1.6640  EPtot      =         1.7993
 BOND   =         0.8377  ANGLE   =         1.6547  DIHED      =         0.6572
 1-4 NB =         0.3395  1-4 EEL =         2.6785  VDWAALS    =         0.0148
 EELEC  =         2.7790  EHBOND  =         0.0000  RESTRAINT  =         0.0000
 DV/DL  =         0.6514
 ------------------------------------------------------------------------------

      A V E R A G E S   O V E R    1000 S T E P S

 NSTEP =     2000   TIME(PS) =       4.000  TEMP(K) =   316.82  PRESS =     0.0
 Etot   =        29.8711  EKtot   =         8.8142  EPtot      =        21.0569
 BOND   =         0.9613  ANGLE   =         5.3134  DIHED      =         1.3233
 1-4 NB =         0.5323  1-4 EEL =        39.3486  VDWAALS    =        -0.0802
 EELEC  =       -26.3418  EHBOND  =         0.0000  RESTRAINT  =         0.0000
 DV/DL  =       -13.1279
 ------------------------------------------------------------------------------

      R M S  F L U C T U A T I O N S

 NSTEP =     2000   TIME(PS) =       4.000  TEMP(K) =    59.81  PRESS =     0.0
 Etot   =         1.6770  EKtot   =         1.6640  EPtot      =         1.7993
 BOND   =         0.8377  ANGLE   =         1.6547  DIHED      =         0.6572
 1-4 NB =         0.3395  1-4 EEL =         2.6785  VDWAALS    =         0.0148
 EELEC  =         2.7790  EHBOND  =         0.0000  RESTRAINT  =         0.0000
 DV/DL  =         0.6514
 ------------------------------------------------------------------------------

      DV/DL, AVERAGES OVER    1000 STEPS

 NSTEP =     2000   TIME(PS) =       4.000  TEMP(K) =    59.81  PRESS =     0.0
 Etot   =         0.0000  EKtot   =         0.0000  EPtot      =       -13.1279
 BOND   =         0.0000  ANGLE   =         0.0000  DIHED      =         0.0000
 1-4 NB =         0.0000  1-4 EEL =       -39.7148  VDWAALS    =         0.0000
 EELEC  =        26.5869  EHBOND  =         0.0000  RESTRAINT  =         0.0000
 DV/DL  =       -13.1279
 ------------------------------------------------------------------------------

      A V E R A G E S   O V E R    1000 S T E P S

 NSTEP =   500000   TIME(PS) =    1000.000  TEMP(K) =   262.28  PRESS =     0.0
 Etot   =        26.9821  EKtot   =         7.2968  EPtot      =        19.6853
 BOND   =         0.8332  ANGLE   =         4.3345  DIHED      =         1.1882
 1-4 NB =         0.4648  1-4 EEL =        38.9415  VDWAALS    =        -0.1136
 EELEC  =       -25.9632  EHBOND  =         0.0000  RESTRAINT  =         0.0000
 DV/DL  =       -13.0990
 ------------------------------------------------------------------------------

      R M S  F L U C T U A T I O N S

 NSTEP =   500000   TIME(PS) =    1000.000  TEMP(K) =    56.32  PRESS =     0.0
 Etot   =         1.8157  EKtot   =         1.5668  EPtot      =         1.5746
 BOND   =         0.6136  ANGLE   =         1.2545  DIHED      =         0.7380
 1-4 NB =         0.3907  1-4 EEL =         2.6086  VDWAALS    =         0.0240
 EELEC  =         2.6623  EHBOND  =         0.0000  RESTRAINT  =         0.0000
 DV/DL  =         0.4432
 ------------------------------------------------------------------------------

      A V E R A G E S   O V E R    1000 S T E P S

 NSTEP =   500000   TIME(PS) =    1000.000  TEMP(K) =   262.28  PRESS =     0.0
 Etot   =        26.9821  EKtot   =         7.2968  EPtot      =        19.6853
 BOND   =         0.8332  ANGLE   =         4.3345  DIHED      =         1.1882
 1-4 NB =         0.4648  1-4 EEL =        38.9415  VDWAALS    =        -0.1136
 EELEC  =       -25.9632  EHBOND  =         0.0000  RESTRAINT  =         0.0000
 DV/DL  =       -13.0990
 ------------------------------------------------------------------------------

      R M S  F L U C T U A T I O N S

 NSTEP =   500000   TIME(PS) =    1000.000  TEMP(K) =    56.32  PRESS =     0.0
 Etot   =         1.8157  EKtot   =         1.5668  EPtot      =         1.5746
 BOND   =         0.6136  ANGLE   =         1.2545  DIHED      =         0.7380
 1-4 NB =         0.3907  1-4 EEL =         2.6086  VDWAALS    =         0.0240
 EELEC  =         2.6623  EHBOND  =         0.0000  RESTRAINT  =         0.0000
 DV/DL  =         0.4432
 ------------------------------------------------------------------------------

      DV/DL, AVERAGES OVER    1000 STEPS

 NSTEP =   500000   TIME(PS) =    1000.000  TEMP(K) =    56.32  PRESS =     0.0
 Etot   =         0.0000  EKtot   =         0.0000  EPtot      =       -13.0990
 BOND   =         0.0000  ANGLE   =         0.0000  DIHED      =         0.0000
 1-4 NB =         0.0000  1-4 EEL =       -39.3038  VDWAALS    =         0.0000
 EELEC  =        26.2048  EHBOND  =         0.0000  RESTRAINT  =         0.0000
 DV/DL  =       -13.0990
 ------------------------------------------------------------------------------

      A V E R A G E S   O V E R  500000 S T E P S

 NSTEP =   500000   TIME(PS) =    1000.000  TEMP(K) =   299.54  PRESS =     0.0
 Etot   =        28.2326  EKtot   =         8.3334  EPtot      =        19.8992
 BOND   =         0.9675  ANGLE   =         4.8738  DIHED      =         1.1254
 1-4 NB =         0.4896  1-4 EEL =        37.6901  VDWAALS    =        -0.0995
 EELEC  =       -25.1476  EHBOND  =         0.0000  RESTRAINT  =         0.0000
 DV/DL  =       -12.6592
 ------------------------------------------------------------------------------

      R M S  F L U C T U A T I O N S

 NSTEP =   500000   TIME(PS) =    1000.000  TEMP(K) =    79.92  PRESS =     0.0
 Etot   =         3.0758  EKtot   =         2.2234  EPtot      =         2.1360
 BOND   =         0.7912  ANGLE   =         1.7220  DIHED      =         0.8012
 1-4 NB =         0.4239  1-4 EEL =         4.8715  VDWAALS    =         0.0337
 EELEC  =         5.1665  EHBOND  =         0.0000  RESTRAINT  =         0.0000
 DV/DL  =         0.6738
 ------------------------------------------------------------------------------

      A V E R A G E S   O V E R  500000 S T E P S

 NSTEP =   500000   TIME(PS) =    1000.000  TEMP(K) =   299.54  PRESS =     0.0
 Etot   =        28.2326  EKtot   =         8.3334  EPtot      =        19.8992
 BOND   =         0.9675  ANGLE   =         4.8738  DIHED      =         1.1254
 1-4 NB =         0.4896  1-4 EEL =        37.6901  VDWAALS    =        -0.0995
 EELEC  =       -25.1476  EHBOND  =         0.0000  RESTRAINT  =         0.0000
 DV/DL  =       -12.6592
 ------------------------------------------------------------------------------

      R M S  F L U C T U A T I O N S

 NSTEP =   500000   TIME(PS) =    1000.000  TEMP(K) =    79.92  PRESS =     0.0
 Etot   =         3.0758  EKtot   =         2.2234  EPtot      =         2.1360
 BOND   =         0.7912  ANGLE   =         1.7220  DIHED      =         0.8012
 1-4 NB =         0.4239  1-4 EEL =         4.8715  VDWAALS    =         0.0337
 EELEC  =         5.1665  EHBOND  =         0.0000  RESTRAINT  =         0.0000
 DV/DL  =         0.6738
 ------------------------------------------------------------------------------

      DV/DL, AVERAGES OVER  500000 STEPS

 NSTEP =   500000   TIME(PS) =    1000.000  TEMP(K) =    79.92  PRESS =     0.0
 Etot   =         0.0000  EKtot   =         0.0000  EPtot      =       -12.6592
 BOND   =         0.0000  ANGLE   =         0.0000  DIHED      =         0.0000
 1-4 NB =         0.0000  1-4 EEL =       -38.0408  VDWAALS    =         0.0000
 EELEC  =        25.3816  EHBOND  =         0.0000  RESTRAINT  =         0.0000
 DV/DL  =       -12.6592
 ------------------------------------------------------------------------------
