-------------------------------------------------------
          Amber 20 PMEMD                              2020
          -------------------------------------------------------

  [-O]verwriting output

File Assignments:

 Here is the input file:

 &cntrl
   nstlim=500000, nscm=1000,
   ntx=5, irest=1, ntpr=1000,
   tempi=300.0, temp0=300.0, ntt=3, gamma_ln=2.0,
   ntp=1, pres0=1.01325, taup=5.0,
   ntb=2, igb=0, cut=10.0,
   dt=0.002, ig=-1,
   ntc=2, ntf=2,
   iwrap=0,
   ntwr=1000, ntwx=50000, ntave=1000,
   ioutfm=1, ntwv=-1,
   ifsc = 0, icfe=1,
   clambda=0.04794,
   timask1=':1',
   timask2=':2', crgmask = ':2',
/

Note: ig = -1. Setting random seed to   217390 based on wallclock time in
      microseconds.

--------------------------------------------------------------------------------
   1.  RESOURCE   USE:
--------------------------------------------------------------------------------

 getting box info from netcdf restart file
 NATOM  =   20967 NTYPES =       6 NBONH =   20959 MBONA  =       6
 NTHETH =      32 MTHETA =       4 NPHIH =      40 MPHIA  =       2
 NHPARM =       0 NPARM  =       0 NNB   =   28026 NRES   =    6983
 NBONA  =       6 NTHETA =       4 NPHIA =       2 NUMBND =       6
 NUMANG =       6 NPTRA  =       2 NATYP =       6 NPHB   =       1
 IFBOX  =       2 NMXRS  =      12 IFCAP =       0 NEXTRA =       0
 NCOPY  =       0

     BOX TYPE: TRUNCATED OCTAHEDRON

--------------------------------------------------------------------------------
   2.  CONTROL  DATA  FOR  THE  RUN
--------------------------------------------------------------------------------

default_name

General flags:
     imin    =       0, nmropt  =       0

Nature and format of input:
     ntx     =       5, irest   =       1, ntrx    =       1

Nature and format of output:
     ntxo    =       2, ntpr    =    1000, ntrx    =       1, ntwr    =    1000
     iwrap   =       0, ntwx    =   50000, ntwv    =      -1, ntwe    =       0
     ioutfm  =       1, ntwprt  =       0, idecomp =       0, rbornstat=      0

Potential function:
     ntf     =       2, ntb     =       2, igb     =       0, nsnb    =      25
     ipol    =       0, gbsa    =       0, iesp    =       0
     dielc   =   1.00000, cut     =  10.00000, intdiel =   1.00000

Frozen or restrained atoms:
     ibelly  =       0, ntr     =       0

Molecular dynamics:
     nstlim  =    500000, nscm    =      1000, nrespa  =         1
     t       =   0.00000, dt      =   0.00200, vlimit  =  -1.00000

Langevin dynamics temperature regulation:
     ig      =  217390
     temp0   = 300.00000, tempi   = 300.00000, gamma_ln=   2.00000

Pressure regulation:
     ntp     =       1
     pres0   =   1.01325, comp    =  44.60000, taup    =   5.00000

SHAKE:
     ntc     =       2, jfastw  =       0
     tol     =   0.00001

Free energy options:
     icfe    =       1, ifsc    =       0, klambda =       1
     clambda =  0.0479, scalpha =  0.5000, scbeta  = 12.0000
     sceeorder =       2
     dynlmb =  0.0000 logdvdl =       0

Ewald parameters:
     verbose =       0, ew_type =       0, nbflag  =       1, use_pme =       1
     vdwmeth =       1, eedmeth =       1, netfrc  =       1
     Box X =   67.054   Box Y =   67.054   Box Z =   67.054
     Alpha =  109.471   Beta  =  109.471   Gamma =  109.471
     NFFT1 =   64       NFFT2 =   64       NFFT3 =   64
     Cutoff=   10.000   Tol   =0.100E-04
     Ewald Coefficient =  0.27511
     Interpolation order =    4
     TI Mask 1 :1; matches     12 atoms
     TI Mask 2 :2; matches     12 atoms
     TI region 1:   20955 atoms
     TI region 2:   20955 atoms
Removing charge of      -0.6664 from atom      13
Removing charge of      -0.6664 from atom      14
Removing charge of      -0.0664 from atom      15
Removing charge of      -0.0664 from atom      16
Removing charge of       0.2792 from atom      17
Removing charge of       0.2802 from atom      18
Removing charge of       0.2802 from atom      19
Removing charge of       0.2792 from atom      20
Removing charge of       0.0898 from atom      21
Removing charge of       0.0837 from atom      22
Removing charge of       0.0898 from atom      23
Removing charge of       0.0837 from atom      24
Total charge of  -0.00000000 removed from      12 atoms
     Checking for mismatched coordinates.

--------------------------------------------------------------------------------
   3.  ATOMIC COORDINATES AND VELOCITIES
--------------------------------------------------------------------------------

default_name
 begin time read from input coords =   200.000 ps

 Number of triangulated 3-point waters found:     6981

     Sum of charges for TI region  1 =  -0.00000000
     Skip neutralizing charges...

     Sum of charges for TI region  2 =   0.00000000
     Skip neutralizing charges...

--------------------------------------------------------------------------------
   4.  RESULTS
 NSTEP =     1000   TIME(PS) =     202.000  TEMP(K) =   301.15  PRESS =  -493.9
 Etot   =    -53185.1527  EKtot   =     12541.5146  EPtot      =    -65726.6673
 BOND   =         0.0214  ANGLE   =         6.0057  DIHED      =         1.6983
 1-4 NB =         0.3559  1-4 EEL =        35.8146  VDWAALS    =      9803.5891
 EELEC  =    -75574.1524  EHBOND  =         0.0000  RESTRAINT  =         0.0000
 EKCMT  =      6290.9624  VIRIAL  =      8737.7385  VOLUME     =    229427.2838
                                                    Density    =         0.9107
 DV/DL  =         0.2970
 ------------------------------------------------------------------------------

      A V E R A G E S   O V E R    1000 S T E P S

 NSTEP =     1000   TIME(PS) =     202.000  TEMP(K) =   300.03  PRESS =  -644.8
 Etot   =    -53212.6280  EKtot   =     12494.9571  EPtot      =    -65707.5851
 BOND   =         1.0398  ANGLE   =         5.9031  DIHED      =         1.4733
 1-4 NB =         0.5577  1-4 EEL =        36.7511  VDWAALS    =      9715.5033
 EELEC  =    -75468.8134  EHBOND  =         0.0000  RESTRAINT  =         0.0000
 EKCMT  =      6265.0655  VIRIAL  =      9477.3744  VOLUME     =    230714.0525
                                                    Density    =         0.9057
 DV/DL  =        -1.8753
 ------------------------------------------------------------------------------

      R M S  F L U C T U A T I O N S

 NSTEP =     1000   TIME(PS) =     202.000  TEMP(K) =     1.62  PRESS =    99.7
 Etot   =        73.2876  EKtot   =        67.6324  EPtot      =        87.8875
 BOND   =         0.7700  ANGLE   =         2.0108  DIHED      =         0.9134
 1-4 NB =         0.4371  1-4 EEL =         3.4687  VDWAALS    =        89.4074
 EELEC  =       118.7373  EHBOND  =         0.0000  RESTRAINT  =         0.0000
 EKCMT  =        49.1999  VIRIAL  =       517.7188  VOLUME     =       772.1546
                                                    Density    =         0.0030
 DV/DL  =         2.9901
 ------------------------------------------------------------------------------

      A V E R A G E S   O V E R    1000 S T E P S

 NSTEP =     1000   TIME(PS) =     202.000  TEMP(K) =   300.03  PRESS =  -644.8
 Etot   =    -53212.6280  EKtot   =     12494.9571  EPtot      =    -65707.5851
 BOND   =         1.0398  ANGLE   =         5.9031  DIHED      =         1.4733
 1-4 NB =         0.5577  1-4 EEL =        36.7511  VDWAALS    =      9715.5033
 EELEC  =    -75468.8134  EHBOND  =         0.0000  RESTRAINT  =         0.0000
 EKCMT  =      6265.0655  VIRIAL  =      9477.3744  VOLUME     =    230714.0525
                                                    Density    =         0.9057
 DV/DL  =        -1.8753
 ------------------------------------------------------------------------------

      R M S  F L U C T U A T I O N S

 NSTEP =     1000   TIME(PS) =     202.000  TEMP(K) =     1.62  PRESS =    99.7
 Etot   =        73.2876  EKtot   =        67.6324  EPtot      =        87.8875
 BOND   =         0.7700  ANGLE   =         2.0108  DIHED      =         0.9134
 1-4 NB =         0.4371  1-4 EEL =         3.4687  VDWAALS    =        89.4074
 EELEC  =       118.7373  EHBOND  =         0.0000  RESTRAINT  =         0.0000
 EKCMT  =        49.1999  VIRIAL  =       517.7188  VOLUME     =       772.1546
                                                    Density    =         0.0030
 DV/DL  =         2.9901
 ------------------------------------------------------------------------------

      DV/DL, AVERAGES OVER    1000 STEPS

 NSTEP =     1000   TIME(PS) =     202.000  TEMP(K) =     1.62  PRESS =     0.0
 Etot   =         0.0000  EKtot   =         0.0000  EPtot      =        -1.8753
 BOND   =         0.0000  ANGLE   =         0.0000  DIHED      =         0.0000
 1-4 NB =         0.0000  1-4 EEL =       -38.6017  VDWAALS    =         0.0000
 EELEC  =        36.7263  EHBOND  =         0.0000  RESTRAINT  =         0.0000
 EKCMT  =         0.0000  VIRIAL  =         0.0000  VOLUME     =         0.0000
                                                    Density    =         0.0000
 DV/DL  =        -1.8753
 ------------------------------------------------------------------------------

      A V E R A G E S   O V E R    1000 S T E P S

 NSTEP =     2000   TIME(PS) =     204.000  TEMP(K) =   299.24  PRESS =  -567.6
 Etot   =    -53439.3115  EKtot   =     12461.8858  EPtot      =    -65901.1973
 BOND   =         0.8808  ANGLE   =         4.8626  DIHED      =         1.1591
 1-4 NB =         0.4190  1-4 EEL =        37.3203  VDWAALS    =      9769.9529
 EELEC  =    -75715.7920  EHBOND  =         0.0000  RESTRAINT  =         0.0000
 EKCMT  =      6255.1431  VIRIAL  =      9052.7062  VOLUME     =    228245.4247
                                                    Density    =         0.9155
 DV/DL  =         0.3565
 ------------------------------------------------------------------------------

      R M S  F L U C T U A T I O N S

 NSTEP =     2000   TIME(PS) =     204.000  TEMP(K) =     1.79  PRESS =    93.4
 Etot   =       109.2669  EKtot   =        74.4039  EPtot      =        97.4726
 BOND   =         0.7305  ANGLE   =         1.5287  DIHED      =         0.8499
 1-4 NB =         0.3218  1-4 EEL =         1.9752  VDWAALS    =        94.6516
 EELEC  =       150.2070  EHBOND  =         0.0000  RESTRAINT  =         0.0000
 EKCMT  =        50.6011  VIRIAL  =       467.5864  VOLUME     =       658.2815
                                                    Density    =         0.0026
 DV/DL  =         2.8988
 ------------------------------------------------------------------------------

      A V E R A G E S   O V E R    1000 S T E P S

 NSTEP =     2000   TIME(PS) =     204.000  TEMP(K) =   299.24  PRESS =  -567.6
 Etot   =    -53439.3115  EKtot   =     12461.8858  EPtot      =    -65901.1973
 BOND   =         0.8808  ANGLE   =         4.8626  DIHED      =         1.1591
 1-4 NB =         0.4190  1-4 EEL =        37.3203  VDWAALS    =      9769.9529
 EELEC  =    -75715.7920  EHBOND  =         0.0000  RESTRAINT  =         0.0000
 EKCMT  =      6255.1431  VIRIAL  =      9052.7062  VOLUME     =    228245.4247
                                                    Density    =         0.9155
 DV/DL  =         0.3565
 ------------------------------------------------------------------------------

      R M S  F L U C T U A T I O N S

 NSTEP =     2000   TIME(PS) =     204.000  TEMP(K) =     1.79  PRESS =    93.4
 Etot   =       109.2669  EKtot   =        74.4039  EPtot      =        97.4726
 BOND   =         0.7305  ANGLE   =         1.5287  DIHED      =         0.8499
 1-4 NB =         0.3218  1-4 EEL =         1.9752  VDWAALS    =        94.6516
 EELEC  =       150.2070  EHBOND  =         0.0000  RESTRAINT  =         0.0000
 EKCMT  =        50.6011  VIRIAL  =       467.5864  VOLUME     =       658.2815
                                                    Density    =         0.0026
 DV/DL  =         2.8988
 ------------------------------------------------------------------------------

      DV/DL, AVERAGES OVER    1000 STEPS

 NSTEP =     2000   TIME(PS) =     204.000  TEMP(K) =     1.79  PRESS =     0.0
 Etot   =         0.0000  EKtot   =         0.0000  EPtot      =         0.3565
 BOND   =         0.0000  ANGLE   =         0.0000  DIHED      =         0.0000
 1-4 NB =         0.0000  1-4 EEL =       -39.1995  VDWAALS    =         0.0000
 EELEC  =        39.5560  EHBOND  =         0.0000  RESTRAINT  =         0.0000
 EKCMT  =         0.0000  VIRIAL  =         0.0000  VOLUME     =         0.0000
                                                    Density    =         0.0000
 DV/DL  =         0.3565
 ------------------------------------------------------------------------------

      A V E R A G E S   O V E R    1000 S T E P S

 NSTEP =   500000   TIME(PS) =    1200.000  TEMP(K) =   300.70  PRESS =   -13.1
 Etot   =    -54112.0091  EKtot   =     12522.7742  EPtot      =    -66634.7833
 BOND   =         1.3781  ANGLE   =         5.6343  DIHED      =         1.2615
 1-4 NB =         0.2127  1-4 EEL =        26.5943  VDWAALS    =      9963.7736
 EELEC  =    -76633.6378  EHBOND  =         0.0000  RESTRAINT  =         0.0000
 EKCMT  =      6268.6100  VIRIAL  =      6328.7012  VOLUME     =    212413.1448
                                                    Density    =         0.9837
 DV/DL  =        -0.9769
 ------------------------------------------------------------------------------

      R M S  F L U C T U A T I O N S

 NSTEP =   500000   TIME(PS) =    1200.000  TEMP(K) =     1.70  PRESS =   116.0
 Etot   =        97.4213  EKtot   =        70.7973  EPtot      =        95.9968
 BOND   =         1.0452  ANGLE   =         1.5698  DIHED      =         0.8371
 1-4 NB =         0.2432  1-4 EEL =         0.6722  VDWAALS    =       108.6704
 EELEC  =       150.7772  EHBOND  =         0.0000  RESTRAINT  =         0.0000
 EKCMT  =        64.1603  VIRIAL  =       543.2549  VOLUME     =        26.9416
                                                    Density    =         0.0001
 DV/DL  =         3.4226
 ------------------------------------------------------------------------------

      A V E R A G E S   O V E R    1000 S T E P S

 NSTEP =   500000   TIME(PS) =    1200.000  TEMP(K) =   300.70  PRESS =   -13.1
 Etot   =    -54112.0091  EKtot   =     12522.7742  EPtot      =    -66634.7833
 BOND   =         1.3781  ANGLE   =         5.6343  DIHED      =         1.2615
 1-4 NB =         0.2127  1-4 EEL =        26.5943  VDWAALS    =      9963.7736
 EELEC  =    -76633.6378  EHBOND  =         0.0000  RESTRAINT  =         0.0000
 EKCMT  =      6268.6100  VIRIAL  =      6328.7012  VOLUME     =    212413.1448
                                                    Density    =         0.9837
 DV/DL  =        -0.9769
 ------------------------------------------------------------------------------

      R M S  F L U C T U A T I O N S

 NSTEP =   500000   TIME(PS) =    1200.000  TEMP(K) =     1.70  PRESS =   116.0
 Etot   =        97.4213  EKtot   =        70.7973  EPtot      =        95.9968
 BOND   =         1.0452  ANGLE   =         1.5698  DIHED      =         0.8371
 1-4 NB =         0.2432  1-4 EEL =         0.6722  VDWAALS    =       108.6704
 EELEC  =       150.7772  EHBOND  =         0.0000  RESTRAINT  =         0.0000
 EKCMT  =        64.1603  VIRIAL  =       543.2549  VOLUME     =        26.9416
                                                    Density    =         0.0001
 DV/DL  =         3.4226
 ------------------------------------------------------------------------------

      DV/DL, AVERAGES OVER    1000 STEPS

 NSTEP =   500000   TIME(PS) =    1200.000  TEMP(K) =     1.70  PRESS =     0.0
 Etot   =         0.0000  EKtot   =         0.0000  EPtot      =        -0.9769
 BOND   =         0.0000  ANGLE   =         0.0000  DIHED      =         0.0000
 1-4 NB =         0.0000  1-4 EEL =       -27.9334  VDWAALS    =         0.0000
 EELEC  =        26.9564  EHBOND  =         0.0000  RESTRAINT  =         0.0000
 EKCMT  =         0.0000  VIRIAL  =         0.0000  VOLUME     =         0.0000
                                                    Density    =         0.0000
 DV/DL  =        -0.9769
 ------------------------------------------------------------------------------

      A V E R A G E S   O V E R  500000 S T E P S

 NSTEP =   500000   TIME(PS) =    1200.000  TEMP(K) =   300.01  PRESS =    -8.9
 Etot   =    -54086.6440  EKtot   =     12494.1282  EPtot      =    -66580.7722
 BOND   =         0.9435  ANGLE   =         4.9002  DIHED      =         1.1351
 1-4 NB =         0.3558  1-4 EEL =        32.0275  VDWAALS    =      9953.8761
 EELEC  =    -76574.0103  EHBOND  =         0.0000  RESTRAINT  =         0.0000
 EKCMT  =      6263.7715  VIRIAL  =      6306.7751  VOLUME     =    212709.7755
                                                    Density    =         0.9824
 DV/DL  =         0.0349
 ------------------------------------------------------------------------------

      R M S  F L U C T U A T I O N S

 NSTEP =   500000   TIME(PS) =    1200.000  TEMP(K) =     2.07  PRESS =   142.1
 Etot   =       170.2689  EKtot   =        86.2939  EPtot      =       145.3957
 BOND   =         0.7698  ANGLE   =         1.7267  DIHED      =         0.7881
 1-4 NB =         0.3648  1-4 EEL =         5.9513  VDWAALS    =       126.5246
 EELEC  =       221.7165  EHBOND  =         0.0000  RESTRAINT  =         0.0000
 EKCMT  =        61.4615  VIRIAL  =       658.1959  VOLUME     =      1567.9536
                                                    Density    =         0.0068
 DV/DL  =         3.6866
 ------------------------------------------------------------------------------

      A V E R A G E S   O V E R  500000 S T E P S

 NSTEP =   500000   TIME(PS) =    1200.000  TEMP(K) =   300.01  PRESS =    -8.9
 Etot   =    -54086.6440  EKtot   =     12494.1282  EPtot      =    -66580.7722
 BOND   =         0.9435  ANGLE   =         4.9002  DIHED      =         1.1351
 1-4 NB =         0.3558  1-4 EEL =        32.0275  VDWAALS    =      9953.8761
 EELEC  =    -76574.0103  EHBOND  =         0.0000  RESTRAINT  =         0.0000
 EKCMT  =      6263.7715  VIRIAL  =      6306.7751  VOLUME     =    212709.7755
                                                    Density    =         0.9824
 DV/DL  =         0.0349
 ------------------------------------------------------------------------------

      R M S  F L U C T U A T I O N S

 NSTEP =   500000   TIME(PS) =    1200.000  TEMP(K) =     2.07  PRESS =   142.1
 Etot   =       170.2689  EKtot   =        86.2939  EPtot      =       145.3957
 BOND   =         0.7698  ANGLE   =         1.7267  DIHED      =         0.7881
 1-4 NB =         0.3648  1-4 EEL =         5.9513  VDWAALS    =       126.5246
 EELEC  =       221.7165  EHBOND  =         0.0000  RESTRAINT  =         0.0000
 EKCMT  =        61.4615  VIRIAL  =       658.1959  VOLUME     =      1567.9536
                                                    Density    =         0.0068
 DV/DL  =         3.6866
 ------------------------------------------------------------------------------

      DV/DL, AVERAGES OVER  500000 STEPS

 NSTEP =   500000   TIME(PS) =    1200.000  TEMP(K) =     2.07  PRESS =     0.0
 Etot   =         0.0000  EKtot   =         0.0000  EPtot      =         0.0349
 BOND   =         0.0000  ANGLE   =         0.0000  DIHED      =         0.0000
 1-4 NB =         0.0000  1-4 EEL =       -33.6402  VDWAALS    =         0.0000
 EELEC  =        33.6751  EHBOND  =         0.0000  RESTRAINT  =         0.0000
 EKCMT  =         0.0000  VIRIAL  =         0.0000  VOLUME     =         0.0000
                                                    Density    =         0.0000
 DV/DL  =         0.0349
 ------------------------------------------------------------------------------
