-------------------------------------------------------
          Amber 20 PMEMD                              2020
          -------------------------------------------------------

  [-O]verwriting output

File Assignments:

 Here is the input file:

 &cntrl
   nstlim=1000000, nscm=1000,
   ntx=1, irest=0, ntpr=1000,
   tempi=300.0, temp0=300.0, ntt=3, gamma_ln=2.0,
   ntb=1, igb=0, cut=10.0,
   dt=0.001, ig=-1,
   ntc=1, ntf=1,
   iwrap=0,
   ntwr=1000, ntwx=50000, ntave=1000,
   ioutfm=1, ntwv=-1,
   ifsc = 0, icfe=1,
   clambda=0.20634,
   timask1=':1',
   timask2=':2', crgmask = ':2',
/

Note: ig = -1. Setting random seed to   820664 based on wallclock time in
      microseconds.

--------------------------------------------------------------------------------
   1.  RESOURCE   USE:
--------------------------------------------------------------------------------

 getting box info from netcdf restart file
 NATOM  =      24 NTYPES =       6 NBONH =      16 MBONA  =       6
 NTHETH =      32 MTHETA =       4 NPHIH =      40 MPHIA  =       2
 NHPARM =       0 NPARM  =       0 NNB   =     102 NRES   =       2
 NBONA  =       6 NTHETA =       4 NPHIA =       2 NUMBND =       4
 NUMANG =       6 NPTRA  =       2 NATYP =       6 NPHB   =       1
 IFBOX  =       2 NMXRS  =      12 IFCAP =       0 NEXTRA =       0
 NCOPY  =       0

     BOX TYPE: TRUNCATED OCTAHEDRON

--------------------------------------------------------------------------------
   2.  CONTROL  DATA  FOR  THE  RUN
--------------------------------------------------------------------------------

default_name

General flags:
     imin    =       0, nmropt  =       0

Nature and format of input:
     ntx     =       1, irest   =       0, ntrx    =       1

Nature and format of output:
     ntxo    =       2, ntpr    =    1000, ntrx    =       1, ntwr    =    1000
     iwrap   =       0, ntwx    =   50000, ntwv    =      -1, ntwe    =       0
     ioutfm  =       1, ntwprt  =       0, idecomp =       0, rbornstat=      0

Potential function:
     ntf     =       1, ntb     =       1, igb     =       0, nsnb    =      25
     ipol    =       0, gbsa    =       0, iesp    =       0
     dielc   =   1.00000, cut     =  10.00000, intdiel =   1.00000

Frozen or restrained atoms:
     ibelly  =       0, ntr     =       0

Molecular dynamics:
     nstlim  =   1000000, nscm    =      1000, nrespa  =         1
     t       =   0.00000, dt      =   0.00100, vlimit  =  -1.00000

Langevin dynamics temperature regulation:
     ig      =  820664
     temp0   = 300.00000, tempi   = 300.00000, gamma_ln=   2.00000

Free energy options:
     icfe    =       1, ifsc    =       0, klambda =       1
     clambda =  0.2063, scalpha =  0.5000, scbeta  = 12.0000
     sceeorder =       2
     dynlmb =  0.0000 logdvdl =       0

Ewald parameters:
     verbose =       0, ew_type =       0, nbflag  =       1, use_pme =       1
     vdwmeth =       1, eedmeth =       1, netfrc  =       1
     Box X =   67.054   Box Y =   67.054   Box Z =   67.054
     Alpha =  109.471   Beta  =  109.471   Gamma =  109.471
     NFFT1 =   64       NFFT2 =   64       NFFT3 =   64
     Cutoff=   10.000   Tol   =0.100E-04
     Ewald Coefficient =  0.27511
     Interpolation order =    4
     TI Mask 1 :1; matches     12 atoms
     TI Mask 2 :2; matches     12 atoms
     TI region 1:      12 atoms
     TI region 2:      12 atoms
Removing charge of      -0.6664 from atom      13
Removing charge of      -0.6664 from atom      14
Removing charge of      -0.0664 from atom      15
Removing charge of      -0.0664 from atom      16
Removing charge of       0.2792 from atom      17
Removing charge of       0.2802 from atom      18
Removing charge of       0.2802 from atom      19
Removing charge of       0.2792 from atom      20
Removing charge of       0.0898 from atom      21
Removing charge of       0.0837 from atom      22
Removing charge of       0.0898 from atom      23
Removing charge of       0.0837 from atom      24
Total charge of  -0.00000000 removed from      12 atoms
     Checking for mismatched coordinates.

--------------------------------------------------------------------------------
   3.  ATOMIC COORDINATES AND VELOCITIES
--------------------------------------------------------------------------------

default_name
 begin time read from input coords =     0.000 ps

 Number of triangulated 3-point waters found:        0

     Sum of charges for TI region  1 =  -0.00000000
     Skip neutralizing charges...

     Sum of charges for TI region  2 =   0.00000000
     Skip neutralizing charges...

--------------------------------------------------------------------------------
   4.  RESULTS
 NSTEP =        0   TIME(PS) =       0.000  TEMP(K) =   288.53  PRESS =     0.0
 Etot   =        21.1639  EKtot   =        10.3204  EPtot      =        10.8435
 BOND   =         0.0293  ANGLE   =         0.0848  DIHED      =         0.0573
 1-4 NB =         0.3128  1-4 EEL =        31.7785  VDWAALS    =        -0.1220
 EELEC  =       -21.2971  EHBOND  =         0.0000  RESTRAINT  =         0.0000
 DV/DL  =       -13.2065
 ------------------------------------------------------------------------------

      A V E R A G E S   O V E R    1000 S T E P S

 NSTEP =     1000   TIME(PS) =       1.000  TEMP(K) =   275.95  PRESS =     0.0
 Etot   =        29.0156  EKtot   =         9.8706  EPtot      =        19.1450
 BOND   =         3.5347  ANGLE   =         3.7459  DIHED      =         1.1561
 1-4 NB =         0.3867  1-4 EEL =        31.5188  VDWAALS    =        -0.1150
 EELEC  =       -21.0821  EHBOND  =         0.0000  RESTRAINT  =         0.0000
 DV/DL  =       -13.1560
 ------------------------------------------------------------------------------

      R M S  F L U C T U A T I O N S

 NSTEP =     1000   TIME(PS) =       1.000  TEMP(K) =    83.55  PRESS =     0.0
 Etot   =         5.3403  EKtot   =         2.9886  EPtot      =         3.1270
 BOND   =         1.5005  ANGLE   =         1.6469  DIHED      =         1.0280
 1-4 NB =         0.2975  1-4 EEL =         1.2756  VDWAALS    =         0.0213
 EELEC  =         1.3158  EHBOND  =         0.0000  RESTRAINT  =         0.0000
 DV/DL  =         0.4583
 ------------------------------------------------------------------------------

      A V E R A G E S   O V E R    1000 S T E P S

 NSTEP =     1000   TIME(PS) =       1.000  TEMP(K) =   275.88  PRESS =     0.0
 Etot   =        29.0132  EKtot   =         9.8682  EPtot      =        19.1450
 BOND   =         3.5347  ANGLE   =         3.7459  DIHED      =         1.1561
 1-4 NB =         0.3867  1-4 EEL =        31.5188  VDWAALS    =        -0.1150
 EELEC  =       -21.0821  EHBOND  =         0.0000  RESTRAINT  =         0.0000
 DV/DL  =       -13.1560
 ------------------------------------------------------------------------------

      R M S  F L U C T U A T I O N S

 NSTEP =     1000   TIME(PS) =       1.000  TEMP(K) =    83.58  PRESS =     0.0
 Etot   =         5.3396  EKtot   =         2.9896  EPtot      =         3.1270
 BOND   =         1.5005  ANGLE   =         1.6469  DIHED      =         1.0280
 1-4 NB =         0.2975  1-4 EEL =         1.2756  VDWAALS    =         0.0213
 EELEC  =         1.3158  EHBOND  =         0.0000  RESTRAINT  =         0.0000
 DV/DL  =         0.4583
 ------------------------------------------------------------------------------

      DV/DL, AVERAGES OVER    1000 STEPS

 NSTEP =     1000   TIME(PS) =       1.000  TEMP(K) =    83.58  PRESS =     0.0
 Etot   =         0.0000  EKtot   =         0.0000  EPtot      =       -13.1560
 BOND   =        -0.0053  ANGLE   =        -0.0007  DIHED      =        -0.0001
 1-4 NB =         0.0001  1-4 EEL =       -39.7132  VDWAALS    =        -0.0000
 EELEC  =        26.5632  EHBOND  =         0.0000  RESTRAINT  =         0.0000
 DV/DL  =       -13.1560
 ------------------------------------------------------------------------------

      A V E R A G E S   O V E R    1000 S T E P S

 NSTEP =     2000   TIME(PS) =       2.000  TEMP(K) =   433.96  PRESS =     0.0
 Etot   =        38.8938  EKtot   =        15.5225  EPtot      =        23.3713
 BOND   =         5.1407  ANGLE   =         6.3663  DIHED      =         1.5387
 1-4 NB =         0.5771  1-4 EEL =        31.9982  VDWAALS    =        -0.0986
 EELEC  =       -22.1511  EHBOND  =         0.0000  RESTRAINT  =         0.0000
 DV/DL  =       -12.4074
 ------------------------------------------------------------------------------

      R M S  F L U C T U A T I O N S

 NSTEP =     2000   TIME(PS) =       2.000  TEMP(K) =    94.34  PRESS =     0.0
 Etot   =         4.5622  EKtot   =         3.3747  EPtot      =         3.0017
 BOND   =         1.9421  ANGLE   =         2.0643  DIHED      =         0.7110
 1-4 NB =         0.4808  1-4 EEL =         1.8935  VDWAALS    =         0.0243
 EELEC  =         2.1534  EHBOND  =         0.0000  RESTRAINT  =         0.0000
 DV/DL  =         0.7804
 ------------------------------------------------------------------------------

      A V E R A G E S   O V E R    1000 S T E P S

 NSTEP =     2000   TIME(PS) =       2.000  TEMP(K) =   433.72  PRESS =     0.0
 Etot   =        38.8851  EKtot   =        15.5138  EPtot      =        23.3713
 BOND   =         5.1407  ANGLE   =         6.3663  DIHED      =         1.5387
 1-4 NB =         0.5771  1-4 EEL =        31.9982  VDWAALS    =        -0.0986
 EELEC  =       -22.1511  EHBOND  =         0.0000  RESTRAINT  =         0.0000
 DV/DL  =       -12.4074
 ------------------------------------------------------------------------------

      R M S  F L U C T U A T I O N S

 NSTEP =     2000   TIME(PS) =       2.000  TEMP(K) =    94.36  PRESS =     0.0
 Etot   =         4.5685  EKtot   =         3.3750  EPtot      =         3.0017
 BOND   =         1.9421  ANGLE   =         2.0643  DIHED      =         0.7110
 1-4 NB =         0.4808  1-4 EEL =         1.8935  VDWAALS    =         0.0243
 EELEC  =         2.1534  EHBOND  =         0.0000  RESTRAINT  =         0.0000
 DV/DL  =         0.7804
 ------------------------------------------------------------------------------

      DV/DL, AVERAGES OVER    1000 STEPS

 NSTEP =     2000   TIME(PS) =       2.000  TEMP(K) =    94.36  PRESS =     0.0
 Etot   =         0.0000  EKtot   =         0.0000  EPtot      =       -12.4074
 BOND   =         0.0016  ANGLE   =        -0.0021  DIHED      =         0.0002
 1-4 NB =         0.0001  1-4 EEL =       -40.3172  VDWAALS    =        -0.0000
 EELEC  =        27.9101  EHBOND  =         0.0000  RESTRAINT  =         0.0000
 DV/DL  =       -12.4074
 ------------------------------------------------------------------------------

      A V E R A G E S   O V E R    1000 S T E P S

 NSTEP =  1000000   TIME(PS) =    1000.000  TEMP(K) =   332.95  PRESS =     0.0
 Etot   =        31.1034  EKtot   =        11.9095  EPtot      =        19.1939
 BOND   =         3.0396  ANGLE   =         4.2056  DIHED      =         1.6105
 1-4 NB =         0.5982  1-4 EEL =        31.3970  VDWAALS    =        -0.0948
 EELEC  =       -21.5622  EHBOND  =         0.0000  RESTRAINT  =         0.0000
 DV/DL  =       -12.3927
 ------------------------------------------------------------------------------

      R M S  F L U C T U A T I O N S

 NSTEP =  1000000   TIME(PS) =    1000.000  TEMP(K) =    56.84  PRESS =     0.0
 Etot   =         1.8470  EKtot   =         2.0333  EPtot      =         1.8397
 BOND   =         1.0531  ANGLE   =         1.2931  DIHED      =         0.9823
 1-4 NB =         0.5580  1-4 EEL =         2.4898  VDWAALS    =         0.0242
 EELEC  =         2.8452  EHBOND  =         0.0000  RESTRAINT  =         0.0000
 DV/DL  =         0.7229
 ------------------------------------------------------------------------------

      A V E R A G E S   O V E R    1000 S T E P S

 NSTEP =  1000000   TIME(PS) =    1000.000  TEMP(K) =   332.82  PRESS =     0.0
 Etot   =        31.0987  EKtot   =        11.9048  EPtot      =        19.1939
 BOND   =         3.0396  ANGLE   =         4.2056  DIHED      =         1.6105
 1-4 NB =         0.5982  1-4 EEL =        31.3970  VDWAALS    =        -0.0948
 EELEC  =       -21.5622  EHBOND  =         0.0000  RESTRAINT  =         0.0000
 DV/DL  =       -12.3927
 ------------------------------------------------------------------------------

      R M S  F L U C T U A T I O N S

 NSTEP =  1000000   TIME(PS) =    1000.000  TEMP(K) =    57.03  PRESS =     0.0
 Etot   =         1.8517  EKtot   =         2.0400  EPtot      =         1.8397
 BOND   =         1.0531  ANGLE   =         1.2931  DIHED      =         0.9823
 1-4 NB =         0.5580  1-4 EEL =         2.4898  VDWAALS    =         0.0242
 EELEC  =         2.8452  EHBOND  =         0.0000  RESTRAINT  =         0.0000
 DV/DL  =         0.7229
 ------------------------------------------------------------------------------

      DV/DL, AVERAGES OVER    1000 STEPS

 NSTEP =  1000000   TIME(PS) =    1000.000  TEMP(K) =    57.03  PRESS =     0.0
 Etot   =         0.0000  EKtot   =         0.0000  EPtot      =       -12.3927
 BOND   =        -0.0007  ANGLE   =        -0.0004  DIHED      =         0.0001
 1-4 NB =        -0.0000  1-4 EEL =       -39.5598  VDWAALS    =         0.0000
 EELEC  =        27.1680  EHBOND  =         0.0000  RESTRAINT  =         0.0000
 DV/DL  =       -12.3927
 ------------------------------------------------------------------------------

      A V E R A G E S   O V E R 1000000 S T E P S

 NSTEP =  1000000   TIME(PS) =    1000.000  TEMP(K) =   313.19  PRESS =     0.0
 Etot   =        31.6335  EKtot   =        11.2027  EPtot      =        20.4308
 BOND   =         3.8644  ANGLE   =         4.8587  DIHED      =         1.1443
 1-4 NB =         0.3904  1-4 EEL =        28.4198  VDWAALS    =        -0.0881
 EELEC  =       -18.1586  EHBOND  =         0.0000  RESTRAINT  =         0.0000
 DV/DL  =       -12.9292
 ------------------------------------------------------------------------------

      R M S  F L U C T U A T I O N S

 NSTEP =  1000000   TIME(PS) =    1000.000  TEMP(K) =    73.86  PRESS =     0.0
 Etot   =         3.7168  EKtot   =         2.6420  EPtot      =         2.5800
 BOND   =         1.6501  ANGLE   =         1.7077  DIHED      =         0.8168
 1-4 NB =         0.3865  1-4 EEL =         4.6091  VDWAALS    =         0.0383
 EELEC  =         4.8009  EHBOND  =         0.0000  RESTRAINT  =         0.0000
 DV/DL  =         0.6386
 ------------------------------------------------------------------------------

      A V E R A G E S   O V E R 1000000 S T E P S

 NSTEP =  1000000   TIME(PS) =    1000.000  TEMP(K) =   313.19  PRESS =     0.0
 Etot   =        31.6334  EKtot   =        11.2026  EPtot      =        20.4308
 BOND   =         3.8644  ANGLE   =         4.8587  DIHED      =         1.1443
 1-4 NB =         0.3904  1-4 EEL =        28.4198  VDWAALS    =        -0.0881
 EELEC  =       -18.1586  EHBOND  =         0.0000  RESTRAINT  =         0.0000
 DV/DL  =       -12.9292
 ------------------------------------------------------------------------------

      R M S  F L U C T U A T I O N S

 NSTEP =  1000000   TIME(PS) =    1000.000  TEMP(K) =    73.86  PRESS =     0.0
 Etot   =         3.7166  EKtot   =         2.6420  EPtot      =         2.5800
 BOND   =         1.6501  ANGLE   =         1.7077  DIHED      =         0.8168
 1-4 NB =         0.3865  1-4 EEL =         4.6091  VDWAALS    =         0.0383
 EELEC  =         4.8009  EHBOND  =         0.0000  RESTRAINT  =         0.0000
 DV/DL  =         0.6386
 ------------------------------------------------------------------------------

      DV/DL, AVERAGES OVER 1000000 STEPS

 NSTEP =  1000000   TIME(PS) =    1000.000  TEMP(K) =    73.86  PRESS =     0.0
 Etot   =         0.0000  EKtot   =         0.0000  EPtot      =       -12.9292
 BOND   =        -0.0001  ANGLE   =        -0.0001  DIHED      =        -0.0000
 1-4 NB =        -0.0000  1-4 EEL =       -35.8085  VDWAALS    =        -0.0000
 EELEC  =        22.8796  EHBOND  =         0.0000  RESTRAINT  =         0.0000
 DV/DL  =       -12.9292
 ------------------------------------------------------------------------------
