-------------------------------------------------------
          Amber 20 PMEMD                              2020
          -------------------------------------------------------

  [-O]verwriting output

File Assignments:

 Here is the input file:

 &cntrl
   nstlim=500000, nscm=1000,
   ntx=5, irest=1, ntpr=1000,
   tempi=300.0, temp0=300.0, ntt=3, gamma_ln=2.0,
   ntp=1, pres0=1.01325, taup=5.0,
   ntb=2, igb=0, cut=10.0,
   dt=0.002, ig=-1,
   ntc=2, ntf=2,
   iwrap=0,
   ntwr=1000, ntwx=50000, ntave=1000,
   ioutfm=1, ntwv=-1,
   ifsc = 0, icfe=1,
   clambda=0.00922,
   timask1=':1',
   timask2=':2', crgmask = ':2',
/

Note: ig = -1. Setting random seed to   304645 based on wallclock time in
      microseconds.

--------------------------------------------------------------------------------
   1.  RESOURCE   USE:
--------------------------------------------------------------------------------

 getting box info from netcdf restart file
 NATOM  =   20967 NTYPES =       6 NBONH =   20959 MBONA  =       6
 NTHETH =      32 MTHETA =       4 NPHIH =      40 MPHIA  =       2
 NHPARM =       0 NPARM  =       0 NNB   =   28026 NRES   =    6983
 NBONA  =       6 NTHETA =       4 NPHIA =       2 NUMBND =       6
 NUMANG =       6 NPTRA  =       2 NATYP =       6 NPHB   =       1
 IFBOX  =       2 NMXRS  =      12 IFCAP =       0 NEXTRA =       0
 NCOPY  =       0

     BOX TYPE: TRUNCATED OCTAHEDRON

--------------------------------------------------------------------------------
   2.  CONTROL  DATA  FOR  THE  RUN
--------------------------------------------------------------------------------

default_name

General flags:
     imin    =       0, nmropt  =       0

Nature and format of input:
     ntx     =       5, irest   =       1, ntrx    =       1

Nature and format of output:
     ntxo    =       2, ntpr    =    1000, ntrx    =       1, ntwr    =    1000
     iwrap   =       0, ntwx    =   50000, ntwv    =      -1, ntwe    =       0
     ioutfm  =       1, ntwprt  =       0, idecomp =       0, rbornstat=      0

Potential function:
     ntf     =       2, ntb     =       2, igb     =       0, nsnb    =      25
     ipol    =       0, gbsa    =       0, iesp    =       0
     dielc   =   1.00000, cut     =  10.00000, intdiel =   1.00000

Frozen or restrained atoms:
     ibelly  =       0, ntr     =       0

Molecular dynamics:
     nstlim  =    500000, nscm    =      1000, nrespa  =         1
     t       =   0.00000, dt      =   0.00200, vlimit  =  -1.00000

Langevin dynamics temperature regulation:
     ig      =  304645
     temp0   = 300.00000, tempi   = 300.00000, gamma_ln=   2.00000

Pressure regulation:
     ntp     =       1
     pres0   =   1.01325, comp    =  44.60000, taup    =   5.00000

SHAKE:
     ntc     =       2, jfastw  =       0
     tol     =   0.00001

Free energy options:
     icfe    =       1, ifsc    =       0, klambda =       1
     clambda =  0.0092, scalpha =  0.5000, scbeta  = 12.0000
     sceeorder =       2
     dynlmb =  0.0000 logdvdl =       0

Ewald parameters:
     verbose =       0, ew_type =       0, nbflag  =       1, use_pme =       1
     vdwmeth =       1, eedmeth =       1, netfrc  =       1
     Box X =   67.054   Box Y =   67.054   Box Z =   67.054
     Alpha =  109.471   Beta  =  109.471   Gamma =  109.471
     NFFT1 =   64       NFFT2 =   64       NFFT3 =   64
     Cutoff=   10.000   Tol   =0.100E-04
     Ewald Coefficient =  0.27511
     Interpolation order =    4
     TI Mask 1 :1; matches     12 atoms
     TI Mask 2 :2; matches     12 atoms
     TI region 1:   20955 atoms
     TI region 2:   20955 atoms
Removing charge of      -0.6664 from atom      13
Removing charge of      -0.6664 from atom      14
Removing charge of      -0.0664 from atom      15
Removing charge of      -0.0664 from atom      16
Removing charge of       0.2792 from atom      17
Removing charge of       0.2802 from atom      18
Removing charge of       0.2802 from atom      19
Removing charge of       0.2792 from atom      20
Removing charge of       0.0898 from atom      21
Removing charge of       0.0837 from atom      22
Removing charge of       0.0898 from atom      23
Removing charge of       0.0837 from atom      24
Total charge of  -0.00000000 removed from      12 atoms
     Checking for mismatched coordinates.

--------------------------------------------------------------------------------
   3.  ATOMIC COORDINATES AND VELOCITIES
--------------------------------------------------------------------------------

default_name
 begin time read from input coords =   200.000 ps

 Number of triangulated 3-point waters found:     6981

     Sum of charges for TI region  1 =  -0.00000000
     Skip neutralizing charges...

     Sum of charges for TI region  2 =   0.00000000
     Skip neutralizing charges...

--------------------------------------------------------------------------------
   4.  RESULTS
 NSTEP =     1000   TIME(PS) =     202.000  TEMP(K) =   299.45  PRESS =  -691.8
 Etot   =    -53162.7541  EKtot   =     12470.9282  EPtot      =    -65633.6823
 BOND   =         1.0872  ANGLE   =         5.1908  DIHED      =         4.1645
 1-4 NB =         0.0095  1-4 EEL =        35.4066  VDWAALS    =      9690.6798
 EELEC  =    -75370.2207  EHBOND  =         0.0000  RESTRAINT  =         0.0000
 EKCMT  =      6217.5293  VIRIAL  =      9631.9813  VOLUME     =    228579.4614
                                                    Density    =         0.9141
 DV/DL  =         1.9168
 ------------------------------------------------------------------------------

      A V E R A G E S   O V E R    1000 S T E P S

 NSTEP =     1000   TIME(PS) =     202.000  TEMP(K) =   301.20  PRESS =  -852.5
 Etot   =    -52863.0975  EKtot   =     12543.8135  EPtot      =    -65406.9110
 BOND   =         1.0622  ANGLE   =         4.8371  DIHED      =         1.1804
 1-4 NB =         0.4774  1-4 EEL =        40.4300  VDWAALS    =      9513.7627
 EELEC  =    -74968.6608  EHBOND  =         0.0000  RESTRAINT  =         0.0000
 EKCMT  =      6287.5824  VIRIAL  =     10526.9643  VOLUME     =    230277.3234
                                                    Density    =         0.9074
 DV/DL  =         1.9813
 ------------------------------------------------------------------------------

      R M S  F L U C T U A T I O N S

 NSTEP =     1000   TIME(PS) =     202.000  TEMP(K) =     1.72  PRESS =   128.3
 Etot   =       120.1720  EKtot   =        71.6681  EPtot      =       115.8515
 BOND   =         0.8962  ANGLE   =         1.9572  DIHED      =         0.9131
 1-4 NB =         0.3120  1-4 EEL =         1.7659  VDWAALS    =       129.6651
 EELEC  =       207.1827  EHBOND  =         0.0000  RESTRAINT  =         0.0000
 EKCMT  =        57.5678  VIRIAL  =       652.2455  VOLUME     =       995.9103
                                                    Density    =         0.0039
 DV/DL  =         3.3887
 ------------------------------------------------------------------------------

      A V E R A G E S   O V E R    1000 S T E P S

 NSTEP =     1000   TIME(PS) =     202.000  TEMP(K) =   301.20  PRESS =  -852.5
 Etot   =    -52863.0975  EKtot   =     12543.8135  EPtot      =    -65406.9110
 BOND   =         1.0622  ANGLE   =         4.8371  DIHED      =         1.1804
 1-4 NB =         0.4774  1-4 EEL =        40.4300  VDWAALS    =      9513.7627
 EELEC  =    -74968.6608  EHBOND  =         0.0000  RESTRAINT  =         0.0000
 EKCMT  =      6287.5824  VIRIAL  =     10526.9643  VOLUME     =    230277.3234
                                                    Density    =         0.9074
 DV/DL  =         1.9813
 ------------------------------------------------------------------------------

      R M S  F L U C T U A T I O N S

 NSTEP =     1000   TIME(PS) =     202.000  TEMP(K) =     1.72  PRESS =   128.3
 Etot   =       120.1720  EKtot   =        71.6681  EPtot      =       115.8515
 BOND   =         0.8962  ANGLE   =         1.9572  DIHED      =         0.9131
 1-4 NB =         0.3120  1-4 EEL =         1.7659  VDWAALS    =       129.6651
 EELEC  =       207.1827  EHBOND  =         0.0000  RESTRAINT  =         0.0000
 EKCMT  =        57.5678  VIRIAL  =       652.2455  VOLUME     =       995.9103
                                                    Density    =         0.0039
 DV/DL  =         3.3887
 ------------------------------------------------------------------------------

      DV/DL, AVERAGES OVER    1000 STEPS

 NSTEP =     1000   TIME(PS) =     202.000  TEMP(K) =     1.72  PRESS =     0.0
 Etot   =         0.0000  EKtot   =         0.0000  EPtot      =         1.9813
 BOND   =         0.0000  ANGLE   =         0.0000  DIHED      =         0.0000
 1-4 NB =         0.0000  1-4 EEL =       -40.8063  VDWAALS    =         0.0000
 EELEC  =        42.7876  EHBOND  =         0.0000  RESTRAINT  =         0.0000
 EKCMT  =         0.0000  VIRIAL  =         0.0000  VOLUME     =         0.0000
                                                    Density    =         0.0000
 DV/DL  =         1.9813
 ------------------------------------------------------------------------------

      A V E R A G E S   O V E R    1000 S T E P S

 NSTEP =     2000   TIME(PS) =     204.000  TEMP(K) =   301.32  PRESS =  -652.0
 Etot   =    -53046.0600  EKtot   =     12548.6914  EPtot      =    -65594.7515
 BOND   =         0.9529  ANGLE   =         4.6292  DIHED      =         0.8772
 1-4 NB =         0.4624  1-4 EEL =        39.6248  VDWAALS    =      9653.4749
 EELEC  =    -75294.7729  EHBOND  =         0.0000  RESTRAINT  =         0.0000
 EKCMT  =      6292.5846  VIRIAL  =      9491.6137  VOLUME     =    227214.0912
                                                    Density    =         0.9196
 DV/DL  =         2.6153
 ------------------------------------------------------------------------------

      R M S  F L U C T U A T I O N S

 NSTEP =     2000   TIME(PS) =     204.000  TEMP(K) =     2.02  PRESS =   112.0
 Etot   =       126.1493  EKtot   =        84.2313  EPtot      =        91.6537
 BOND   =         0.7989  ANGLE   =         1.4003  DIHED      =         0.7061
 1-4 NB =         0.3038  1-4 EEL =         1.9387  VDWAALS    =       113.8150
 EELEC  =       168.1743  EHBOND  =         0.0000  RESTRAINT  =         0.0000
 EKCMT  =        55.0657  VIRIAL  =       544.5295  VOLUME     =       760.8354
                                                    Density    =         0.0031
 DV/DL  =         2.6189
 ------------------------------------------------------------------------------

      A V E R A G E S   O V E R    1000 S T E P S

 NSTEP =     2000   TIME(PS) =     204.000  TEMP(K) =   301.32  PRESS =  -652.0
 Etot   =    -53046.0600  EKtot   =     12548.6914  EPtot      =    -65594.7515
 BOND   =         0.9529  ANGLE   =         4.6292  DIHED      =         0.8772
 1-4 NB =         0.4624  1-4 EEL =        39.6248  VDWAALS    =      9653.4749
 EELEC  =    -75294.7729  EHBOND  =         0.0000  RESTRAINT  =         0.0000
 EKCMT  =      6292.5846  VIRIAL  =      9491.6137  VOLUME     =    227214.0912
                                                    Density    =         0.9196
 DV/DL  =         2.6153
 ------------------------------------------------------------------------------

      R M S  F L U C T U A T I O N S

 NSTEP =     2000   TIME(PS) =     204.000  TEMP(K) =     2.02  PRESS =   112.0
 Etot   =       126.1493  EKtot   =        84.2313  EPtot      =        91.6537
 BOND   =         0.7989  ANGLE   =         1.4003  DIHED      =         0.7061
 1-4 NB =         0.3038  1-4 EEL =         1.9387  VDWAALS    =       113.8150
 EELEC  =       168.1743  EHBOND  =         0.0000  RESTRAINT  =         0.0000
 EKCMT  =        55.0657  VIRIAL  =       544.5295  VOLUME     =       760.8354
                                                    Density    =         0.0031
 DV/DL  =         2.6189
 ------------------------------------------------------------------------------

      DV/DL, AVERAGES OVER    1000 STEPS

 NSTEP =     2000   TIME(PS) =     204.000  TEMP(K) =     2.02  PRESS =     0.0
 Etot   =         0.0000  EKtot   =         0.0000  EPtot      =         2.6153
 BOND   =         0.0000  ANGLE   =         0.0000  DIHED      =         0.0000
 1-4 NB =         0.0000  1-4 EEL =       -39.9935  VDWAALS    =         0.0000
 EELEC  =        42.6088  EHBOND  =         0.0000  RESTRAINT  =         0.0000
 EKCMT  =         0.0000  VIRIAL  =         0.0000  VOLUME     =         0.0000
                                                    Density    =         0.0000
 DV/DL  =         2.6153
 ------------------------------------------------------------------------------

      A V E R A G E S   O V E R    1000 S T E P S

 NSTEP =   500000   TIME(PS) =    1200.000  TEMP(K) =   300.12  PRESS =    32.4
 Etot   =    -54073.9212  EKtot   =     12498.4868  EPtot      =    -66572.4080
 BOND   =         0.7588  ANGLE   =         4.0502  DIHED      =         0.9305
 1-4 NB =         0.5723  1-4 EEL =        39.8079  VDWAALS    =      9994.6714
 EELEC  =    -76613.1990  EHBOND  =         0.0000  RESTRAINT  =         0.0000
 EKCMT  =      6270.0869  VIRIAL  =      6121.2324  VOLUME     =    212828.6972
                                                    Density    =         0.9818
 DV/DL  =         3.5840
 ------------------------------------------------------------------------------

      R M S  F L U C T U A T I O N S

 NSTEP =   500000   TIME(PS) =    1200.000  TEMP(K) =     1.80  PRESS =   116.7
 Etot   =        80.6243  EKtot   =        75.0564  EPtot      =        70.0719
 BOND   =         0.5997  ANGLE   =         1.4179  DIHED      =         0.5856
 1-4 NB =         0.4149  1-4 EEL =         2.2385  VDWAALS    =       110.0848
 EELEC  =       136.8060  EHBOND  =         0.0000  RESTRAINT  =         0.0000
 EKCMT  =        50.4032  VIRIAL  =       537.8215  VOLUME     =        42.3441
                                                    Density    =         0.0002
 DV/DL  =         3.2377
 ------------------------------------------------------------------------------

      A V E R A G E S   O V E R    1000 S T E P S

 NSTEP =   500000   TIME(PS) =    1200.000  TEMP(K) =   300.12  PRESS =    32.4
 Etot   =    -54073.9212  EKtot   =     12498.4868  EPtot      =    -66572.4080
 BOND   =         0.7588  ANGLE   =         4.0502  DIHED      =         0.9305
 1-4 NB =         0.5723  1-4 EEL =        39.8079  VDWAALS    =      9994.6714
 EELEC  =    -76613.1990  EHBOND  =         0.0000  RESTRAINT  =         0.0000
 EKCMT  =      6270.0869  VIRIAL  =      6121.2324  VOLUME     =    212828.6972
                                                    Density    =         0.9818
 DV/DL  =         3.5840
 ------------------------------------------------------------------------------

      R M S  F L U C T U A T I O N S

 NSTEP =   500000   TIME(PS) =    1200.000  TEMP(K) =     1.80  PRESS =   116.7
 Etot   =        80.6243  EKtot   =        75.0564  EPtot      =        70.0719
 BOND   =         0.5997  ANGLE   =         1.4179  DIHED      =         0.5856
 1-4 NB =         0.4149  1-4 EEL =         2.2385  VDWAALS    =       110.0848
 EELEC  =       136.8060  EHBOND  =         0.0000  RESTRAINT  =         0.0000
 EKCMT  =        50.4032  VIRIAL  =       537.8215  VOLUME     =        42.3441
                                                    Density    =         0.0002
 DV/DL  =         3.2377
 ------------------------------------------------------------------------------

      DV/DL, AVERAGES OVER    1000 STEPS

 NSTEP =   500000   TIME(PS) =    1200.000  TEMP(K) =     1.80  PRESS =     0.0
 Etot   =         0.0000  EKtot   =         0.0000  EPtot      =         3.5840
 BOND   =         0.0000  ANGLE   =         0.0000  DIHED      =         0.0000
 1-4 NB =         0.0000  1-4 EEL =       -40.1783  VDWAALS    =         0.0000
 EELEC  =        43.7624  EHBOND  =         0.0000  RESTRAINT  =         0.0000
 EKCMT  =         0.0000  VIRIAL  =         0.0000  VOLUME     =         0.0000
                                                    Density    =         0.0000
 DV/DL  =         3.5840
 ------------------------------------------------------------------------------

      A V E R A G E S   O V E R  500000 S T E P S

 NSTEP =   500000   TIME(PS) =    1200.000  TEMP(K) =   300.04  PRESS =    -8.7
 Etot   =    -54081.6113  EKtot   =     12495.3015  EPtot      =    -66576.9128
 BOND   =         0.9652  ANGLE   =         4.9919  DIHED      =         1.1589
 1-4 NB =         0.3818  1-4 EEL =        34.1927  VDWAALS    =      9955.1181
 EELEC  =    -76573.7214  EHBOND  =         0.0000  RESTRAINT  =         0.0000
 EKCMT  =      6265.2219  VIRIAL  =      6307.0401  VOLUME     =    212708.6108
                                                    Density    =         0.9824
 DV/DL  =         0.8778
 ------------------------------------------------------------------------------

      R M S  F L U C T U A T I O N S

 NSTEP =   500000   TIME(PS) =    1200.000  TEMP(K) =     2.02  PRESS =   146.0
 Etot   =       173.7541  EKtot   =        84.2035  EPtot      =       151.0081
 BOND   =         0.7860  ANGLE   =         1.7509  DIHED      =         0.8059
 1-4 NB =         0.3726  1-4 EEL =         5.9613  VDWAALS    =       129.2699
 EELEC  =       231.7441  EHBOND  =         0.0000  RESTRAINT  =         0.0000
 EKCMT  =        59.8285  VIRIAL  =       679.8193  VOLUME     =      1369.3934
                                                    Density    =         0.0060
 DV/DL  =         3.7660
 ------------------------------------------------------------------------------

      A V E R A G E S   O V E R  500000 S T E P S

 NSTEP =   500000   TIME(PS) =    1200.000  TEMP(K) =   300.04  PRESS =    -8.7
 Etot   =    -54081.6113  EKtot   =     12495.3015  EPtot      =    -66576.9128
 BOND   =         0.9652  ANGLE   =         4.9919  DIHED      =         1.1589
 1-4 NB =         0.3818  1-4 EEL =        34.1927  VDWAALS    =      9955.1181
 EELEC  =    -76573.7214  EHBOND  =         0.0000  RESTRAINT  =         0.0000
 EKCMT  =      6265.2219  VIRIAL  =      6307.0401  VOLUME     =    212708.6108
                                                    Density    =         0.9824
 DV/DL  =         0.8778
 ------------------------------------------------------------------------------

      R M S  F L U C T U A T I O N S

 NSTEP =   500000   TIME(PS) =    1200.000  TEMP(K) =     2.02  PRESS =   146.0
 Etot   =       173.7541  EKtot   =        84.2035  EPtot      =       151.0081
 BOND   =         0.7860  ANGLE   =         1.7509  DIHED      =         0.8059
 1-4 NB =         0.3726  1-4 EEL =         5.9613  VDWAALS    =       129.2699
 EELEC  =       231.7441  EHBOND  =         0.0000  RESTRAINT  =         0.0000
 EKCMT  =        59.8285  VIRIAL  =       679.8193  VOLUME     =      1369.3934
                                                    Density    =         0.0060
 DV/DL  =         3.7660
 ------------------------------------------------------------------------------

      DV/DL, AVERAGES OVER  500000 STEPS

 NSTEP =   500000   TIME(PS) =    1200.000  TEMP(K) =     2.02  PRESS =     0.0
 Etot   =         0.0000  EKtot   =         0.0000  EPtot      =         0.8778
 BOND   =         0.0000  ANGLE   =         0.0000  DIHED      =         0.0000
 1-4 NB =         0.0000  1-4 EEL =       -34.5109  VDWAALS    =         0.0000
 EELEC  =        35.3887  EHBOND  =         0.0000  RESTRAINT  =         0.0000
 EKCMT  =         0.0000  VIRIAL  =         0.0000  VOLUME     =         0.0000
                                                    Density    =         0.0000
 DV/DL  =         0.8778
 ------------------------------------------------------------------------------
