-------------------------------------------------------
          Amber 20 PMEMD                              2020
          -------------------------------------------------------

  [-O]verwriting output

File Assignments:

 Here is the input file:

 &cntrl
   nstlim=1000000, nscm=1000,
   ntx=1, irest=0, ntpr=1000,
   tempi=300.0, temp0=300.0, ntt=3, gamma_ln=2.0,
   ntb=1, igb=0, cut=10.0,
   dt=0.001, ig=-1,
   ntc=1, ntf=1,
   iwrap=0,
   ntwr=1000, ntwx=50000, ntave=1000,
   ioutfm=1, ntwv=-1,
   ifsc = 0, icfe=1,
   clambda=0.43738,
   timask1=':1',
   timask2=':2', crgmask = ':2',
/

Note: ig = -1. Setting random seed to   261204 based on wallclock time in
      microseconds.

--------------------------------------------------------------------------------
   1.  RESOURCE   USE:
--------------------------------------------------------------------------------

 getting box info from netcdf restart file
 NATOM  =      24 NTYPES =       6 NBONH =      16 MBONA  =       6
 NTHETH =      32 MTHETA =       4 NPHIH =      40 MPHIA  =       2
 NHPARM =       0 NPARM  =       0 NNB   =     102 NRES   =       2
 NBONA  =       6 NTHETA =       4 NPHIA =       2 NUMBND =       4
 NUMANG =       6 NPTRA  =       2 NATYP =       6 NPHB   =       1
 IFBOX  =       2 NMXRS  =      12 IFCAP =       0 NEXTRA =       0
 NCOPY  =       0

     BOX TYPE: TRUNCATED OCTAHEDRON

--------------------------------------------------------------------------------
   2.  CONTROL  DATA  FOR  THE  RUN
--------------------------------------------------------------------------------

default_name

General flags:
     imin    =       0, nmropt  =       0

Nature and format of input:
     ntx     =       1, irest   =       0, ntrx    =       1

Nature and format of output:
     ntxo    =       2, ntpr    =    1000, ntrx    =       1, ntwr    =    1000
     iwrap   =       0, ntwx    =   50000, ntwv    =      -1, ntwe    =       0
     ioutfm  =       1, ntwprt  =       0, idecomp =       0, rbornstat=      0

Potential function:
     ntf     =       1, ntb     =       1, igb     =       0, nsnb    =      25
     ipol    =       0, gbsa    =       0, iesp    =       0
     dielc   =   1.00000, cut     =  10.00000, intdiel =   1.00000

Frozen or restrained atoms:
     ibelly  =       0, ntr     =       0

Molecular dynamics:
     nstlim  =   1000000, nscm    =      1000, nrespa  =         1
     t       =   0.00000, dt      =   0.00100, vlimit  =  -1.00000

Langevin dynamics temperature regulation:
     ig      =  261204
     temp0   = 300.00000, tempi   = 300.00000, gamma_ln=   2.00000

Free energy options:
     icfe    =       1, ifsc    =       0, klambda =       1
     clambda =  0.4374, scalpha =  0.5000, scbeta  = 12.0000
     sceeorder =       2
     dynlmb =  0.0000 logdvdl =       0

Ewald parameters:
     verbose =       0, ew_type =       0, nbflag  =       1, use_pme =       1
     vdwmeth =       1, eedmeth =       1, netfrc  =       1
     Box X =   67.054   Box Y =   67.054   Box Z =   67.054
     Alpha =  109.471   Beta  =  109.471   Gamma =  109.471
     NFFT1 =   64       NFFT2 =   64       NFFT3 =   64
     Cutoff=   10.000   Tol   =0.100E-04
     Ewald Coefficient =  0.27511
     Interpolation order =    4
     TI Mask 1 :1; matches     12 atoms
     TI Mask 2 :2; matches     12 atoms
     TI region 1:      12 atoms
     TI region 2:      12 atoms
Removing charge of      -0.6664 from atom      13
Removing charge of      -0.6664 from atom      14
Removing charge of      -0.0664 from atom      15
Removing charge of      -0.0664 from atom      16
Removing charge of       0.2792 from atom      17
Removing charge of       0.2802 from atom      18
Removing charge of       0.2802 from atom      19
Removing charge of       0.2792 from atom      20
Removing charge of       0.0898 from atom      21
Removing charge of       0.0837 from atom      22
Removing charge of       0.0898 from atom      23
Removing charge of       0.0837 from atom      24
Total charge of  -0.00000000 removed from      12 atoms
     Checking for mismatched coordinates.

--------------------------------------------------------------------------------
   3.  ATOMIC COORDINATES AND VELOCITIES
--------------------------------------------------------------------------------

default_name
 begin time read from input coords =     0.000 ps

 Number of triangulated 3-point waters found:        0

     Sum of charges for TI region  1 =  -0.00000000
     Skip neutralizing charges...

     Sum of charges for TI region  2 =   0.00000000
     Skip neutralizing charges...

--------------------------------------------------------------------------------
   4.  RESULTS
 NSTEP =        0   TIME(PS) =       0.000  TEMP(K) =   622.27  PRESS =     0.0
 Etot   =       100.1004  EKtot   =        22.2581  EPtot      =        77.8423
 BOND   =         0.1014  ANGLE   =        64.5174  DIHED      =         2.6251
 1-4 NB =         1.5712  1-4 EEL =        18.6411  VDWAALS    =        -0.0239
 EELEC  =        -9.5899  EHBOND  =         0.0000  RESTRAINT  =         0.0000
 DV/DL  =       -16.0876
 ------------------------------------------------------------------------------

      A V E R A G E S   O V E R    1000 S T E P S

 NSTEP =     1000   TIME(PS) =       1.000  TEMP(K) =   659.03  PRESS =     0.0
 Etot   =        58.3795  EKtot   =        23.5732  EPtot      =        34.8063
 BOND   =         7.3245  ANGLE   =        16.0382  DIHED      =         3.0051
 1-4 NB =         0.7700  1-4 EEL =        20.9190  VDWAALS    =        -0.0616
 EELEC  =       -13.1889  EHBOND  =         0.0000  RESTRAINT  =         0.0000
 DV/DL  =       -13.7371
 ------------------------------------------------------------------------------

      R M S  F L U C T U A T I O N S

 NSTEP =     1000   TIME(PS) =       1.000  TEMP(K) =   265.74  PRESS =     0.0
 Etot   =        19.5793  EKtot   =         9.5052  EPtot      =        16.5321
 BOND   =         4.6659  ANGLE   =        14.8117  DIHED      =         1.6887
 1-4 NB =         0.7881  1-4 EEL =         2.8845  VDWAALS    =         0.0388
 EELEC  =         2.9704  EHBOND  =         0.0000  RESTRAINT  =         0.0000
 DV/DL  =         1.3067
 ------------------------------------------------------------------------------

      A V E R A G E S   O V E R    1000 S T E P S

 NSTEP =     1000   TIME(PS) =       1.000  TEMP(K) =   659.32  PRESS =     0.0
 Etot   =        58.3900  EKtot   =        23.5837  EPtot      =        34.8063
 BOND   =         7.3245  ANGLE   =        16.0382  DIHED      =         3.0051
 1-4 NB =         0.7700  1-4 EEL =        20.9190  VDWAALS    =        -0.0616
 EELEC  =       -13.1889  EHBOND  =         0.0000  RESTRAINT  =         0.0000
 DV/DL  =       -13.7371
 ------------------------------------------------------------------------------

      R M S  F L U C T U A T I O N S

 NSTEP =     1000   TIME(PS) =       1.000  TEMP(K) =   265.75  PRESS =     0.0
 Etot   =        19.5809  EKtot   =         9.5058  EPtot      =        16.5321
 BOND   =         4.6659  ANGLE   =        14.8117  DIHED      =         1.6887
 1-4 NB =         0.7881  1-4 EEL =         2.8845  VDWAALS    =         0.0388
 EELEC  =         2.9704  EHBOND  =         0.0000  RESTRAINT  =         0.0000
 DV/DL  =         1.3067
 ------------------------------------------------------------------------------

      DV/DL, AVERAGES OVER    1000 STEPS

 NSTEP =     1000   TIME(PS) =       1.000  TEMP(K) =   265.75  PRESS =     0.0
 Etot   =         0.0000  EKtot   =         0.0000  EPtot      =       -13.7371
 BOND   =         0.0024  ANGLE   =         0.0003  DIHED      =         0.0001
 1-4 NB =        -0.0002  1-4 EEL =       -37.1815  VDWAALS    =        -0.0000
 EELEC  =        23.4418  EHBOND  =         0.0000  RESTRAINT  =         0.0000
 DV/DL  =       -13.7371
 ------------------------------------------------------------------------------

      A V E R A G E S   O V E R    1000 S T E P S

 NSTEP =     2000   TIME(PS) =       2.000  TEMP(K) =   307.43  PRESS =     0.0
 Etot   =        28.4319  EKtot   =        10.9967  EPtot      =        17.4352
 BOND   =         4.1941  ANGLE   =         4.1829  DIHED      =         1.3212
 1-4 NB =         0.3466  1-4 EEL =        17.9996  VDWAALS    =        -0.0478
 EELEC  =       -10.5614  EHBOND  =         0.0000  RESTRAINT  =         0.0000
 DV/DL  =       -13.2234
 ------------------------------------------------------------------------------

      R M S  F L U C T U A T I O N S

 NSTEP =     2000   TIME(PS) =       2.000  TEMP(K) =    58.00  PRESS =     0.0
 Etot   =         1.9498  EKtot   =         2.0748  EPtot      =         1.8802
 BOND   =         1.4179  ANGLE   =         1.3007  DIHED      =         0.8368
 1-4 NB =         0.3399  1-4 EEL =         2.7382  VDWAALS    =         0.0181
 EELEC  =         2.6417  EHBOND  =         0.0000  RESTRAINT  =         0.0000
 DV/DL  =         0.4630
 ------------------------------------------------------------------------------

      A V E R A G E S   O V E R    1000 S T E P S

 NSTEP =     2000   TIME(PS) =       2.000  TEMP(K) =   307.56  PRESS =     0.0
 Etot   =        28.4365  EKtot   =        11.0013  EPtot      =        17.4352
 BOND   =         4.1941  ANGLE   =         4.1829  DIHED      =         1.3212
 1-4 NB =         0.3466  1-4 EEL =        17.9996  VDWAALS    =        -0.0478
 EELEC  =       -10.5614  EHBOND  =         0.0000  RESTRAINT  =         0.0000
 DV/DL  =       -13.2234
 ------------------------------------------------------------------------------

      R M S  F L U C T U A T I O N S

 NSTEP =     2000   TIME(PS) =       2.000  TEMP(K) =    58.12  PRESS =     0.0
 Etot   =         1.9578  EKtot   =         2.0790  EPtot      =         1.8802
 BOND   =         1.4179  ANGLE   =         1.3007  DIHED      =         0.8368
 1-4 NB =         0.3399  1-4 EEL =         2.7382  VDWAALS    =         0.0181
 EELEC  =         2.6417  EHBOND  =         0.0000  RESTRAINT  =         0.0000
 DV/DL  =         0.4630
 ------------------------------------------------------------------------------

      DV/DL, AVERAGES OVER    1000 STEPS

 NSTEP =     2000   TIME(PS) =       2.000  TEMP(K) =    58.12  PRESS =     0.0
 Etot   =         0.0000  EKtot   =         0.0000  EPtot      =       -13.2234
 BOND   =        -0.0016  ANGLE   =        -0.0012  DIHED      =         0.0002
 1-4 NB =        -0.0002  1-4 EEL =       -31.9924  VDWAALS    =        -0.0000
 EELEC  =        18.7718  EHBOND  =         0.0000  RESTRAINT  =         0.0000
 DV/DL  =       -13.2234
 ------------------------------------------------------------------------------

      A V E R A G E S   O V E R    1000 S T E P S

 NSTEP =  1000000   TIME(PS) =    1000.000  TEMP(K) =   341.91  PRESS =     0.0
 Etot   =        30.8769  EKtot   =        12.2300  EPtot      =        18.6469
 BOND   =         4.8031  ANGLE   =         4.8421  DIHED      =         1.3695
 1-4 NB =         0.1681  1-4 EEL =        15.7606  VDWAALS    =        -0.0496
 EELEC  =        -8.2469  EHBOND  =         0.0000  RESTRAINT  =         0.0000
 DV/DL  =       -13.3536
 ------------------------------------------------------------------------------

      R M S  F L U C T U A T I O N S

 NSTEP =  1000000   TIME(PS) =    1000.000  TEMP(K) =    70.81  PRESS =     0.0
 Etot   =         2.8834  EKtot   =         2.5330  EPtot      =         2.2927
 BOND   =         1.5768  ANGLE   =         1.4638  DIHED      =         0.7410
 1-4 NB =         0.2046  1-4 EEL =         0.4779  VDWAALS    =         0.0075
 EELEC  =         0.3461  EHBOND  =         0.0000  RESTRAINT  =         0.0000
 DV/DL  =         0.4769
 ------------------------------------------------------------------------------

      A V E R A G E S   O V E R    1000 S T E P S

 NSTEP =  1000000   TIME(PS) =    1000.000  TEMP(K) =   341.96  PRESS =     0.0
 Etot   =        30.8787  EKtot   =        12.2318  EPtot      =        18.6469
 BOND   =         4.8031  ANGLE   =         4.8421  DIHED      =         1.3695
 1-4 NB =         0.1681  1-4 EEL =        15.7606  VDWAALS    =        -0.0496
 EELEC  =        -8.2469  EHBOND  =         0.0000  RESTRAINT  =         0.0000
 DV/DL  =       -13.3536
 ------------------------------------------------------------------------------

      R M S  F L U C T U A T I O N S

 NSTEP =  1000000   TIME(PS) =    1000.000  TEMP(K) =    70.91  PRESS =     0.0
 Etot   =         2.8763  EKtot   =         2.5364  EPtot      =         2.2927
 BOND   =         1.5768  ANGLE   =         1.4638  DIHED      =         0.7410
 1-4 NB =         0.2046  1-4 EEL =         0.4779  VDWAALS    =         0.0075
 EELEC  =         0.3461  EHBOND  =         0.0000  RESTRAINT  =         0.0000
 DV/DL  =         0.4769
 ------------------------------------------------------------------------------

      DV/DL, AVERAGES OVER    1000 STEPS

 NSTEP =  1000000   TIME(PS) =    1000.000  TEMP(K) =    70.91  PRESS =     0.0
 Etot   =         0.0000  EKtot   =         0.0000  EPtot      =       -13.3536
 BOND   =         0.0014  ANGLE   =        -0.0001  DIHED      =        -0.0002
 1-4 NB =        -0.0000  1-4 EEL =       -28.0128  VDWAALS    =        -0.0000
 EELEC  =        14.6581  EHBOND  =         0.0000  RESTRAINT  =         0.0000
 DV/DL  =       -13.3536
 ------------------------------------------------------------------------------

      A V E R A G E S   O V E R 1000000 S T E P S

 NSTEP =  1000000   TIME(PS) =    1000.000  TEMP(K) =   326.15  PRESS =     0.0
 Etot   =        29.5951  EKtot   =        11.6662  EPtot      =        17.9289
 BOND   =         4.1500  ANGLE   =         5.0903  DIHED      =         1.1175
 1-4 NB =         0.3702  1-4 EEL =        20.1947  VDWAALS    =        -0.0890
 EELEC  =       -12.9049  EHBOND  =         0.0000  RESTRAINT  =         0.0000
 DV/DL  =       -12.9570
 ------------------------------------------------------------------------------

      R M S  F L U C T U A T I O N S

 NSTEP =  1000000   TIME(PS) =    1000.000  TEMP(K) =    78.52  PRESS =     0.0
 Etot   =         4.0501  EKtot   =         2.8086  EPtot      =         2.8163
 BOND   =         1.7734  ANGLE   =         1.8995  DIHED      =         0.7980
 1-4 NB =         0.3700  1-4 EEL =         3.2043  VDWAALS    =         0.0377
 EELEC  =         3.3678  EHBOND  =         0.0000  RESTRAINT  =         0.0000
 DV/DL  =         0.6794
 ------------------------------------------------------------------------------

      A V E R A G E S   O V E R 1000000 S T E P S

 NSTEP =  1000000   TIME(PS) =    1000.000  TEMP(K) =   326.15  PRESS =     0.0
 Etot   =        29.5951  EKtot   =        11.6661  EPtot      =        17.9289
 BOND   =         4.1500  ANGLE   =         5.0903  DIHED      =         1.1175
 1-4 NB =         0.3702  1-4 EEL =        20.1947  VDWAALS    =        -0.0890
 EELEC  =       -12.9049  EHBOND  =         0.0000  RESTRAINT  =         0.0000
 DV/DL  =       -12.9570
 ------------------------------------------------------------------------------

      R M S  F L U C T U A T I O N S

 NSTEP =  1000000   TIME(PS) =    1000.000  TEMP(K) =    78.52  PRESS =     0.0
 Etot   =         4.0499  EKtot   =         2.8085  EPtot      =         2.8163
 BOND   =         1.7734  ANGLE   =         1.8995  DIHED      =         0.7980
 1-4 NB =         0.3700  1-4 EEL =         3.2043  VDWAALS    =         0.0377
 EELEC  =         3.3678  EHBOND  =         0.0000  RESTRAINT  =         0.0000
 DV/DL  =         0.6794
 ------------------------------------------------------------------------------

      DV/DL, AVERAGES OVER 1000000 STEPS

 NSTEP =  1000000   TIME(PS) =    1000.000  TEMP(K) =    78.52  PRESS =     0.0
 Etot   =         0.0000  EKtot   =         0.0000  EPtot      =       -12.9570
 BOND   =        -0.0000  ANGLE   =        -0.0000  DIHED      =         0.0000
 1-4 NB =        -0.0000  1-4 EEL =       -35.8941  VDWAALS    =        -0.0000
 EELEC  =        22.9371  EHBOND  =         0.0000  RESTRAINT  =         0.0000
 DV/DL  =       -12.9570
 ------------------------------------------------------------------------------
