-------------------------------------------------------
          Amber 20 PMEMD                              2020
          -------------------------------------------------------

  [-O]verwriting output

File Assignments:

 Here is the input file:

 &cntrl
   nstlim=1000000, nscm=1000,
   ntx=1, irest=0, ntpr=1000,
   tempi=300.0, temp0=300.0, ntt=3, gamma_ln=2.0,
   ntb=1, igb=0, cut=10.0,
   dt=0.001, ig=-1,
   ntc=1, ntf=1,
   iwrap=0,
   ntwr=1000, ntwx=50000, ntave=1000,
   ioutfm=1, ntwv=-1,
   ifsc = 0, icfe=1,
   clambda=0.99078,
   timask1=':1',
   timask2=':2', crgmask = ':2',
/

Note: ig = -1. Setting random seed to   942122 based on wallclock time in
      microseconds.

--------------------------------------------------------------------------------
   1.  RESOURCE   USE:
--------------------------------------------------------------------------------

 getting box info from netcdf restart file
 NATOM  =      24 NTYPES =       6 NBONH =      16 MBONA  =       6
 NTHETH =      32 MTHETA =       4 NPHIH =      40 MPHIA  =       2
 NHPARM =       0 NPARM  =       0 NNB   =     102 NRES   =       2
 NBONA  =       6 NTHETA =       4 NPHIA =       2 NUMBND =       4
 NUMANG =       6 NPTRA  =       2 NATYP =       6 NPHB   =       1
 IFBOX  =       2 NMXRS  =      12 IFCAP =       0 NEXTRA =       0
 NCOPY  =       0

     BOX TYPE: TRUNCATED OCTAHEDRON

--------------------------------------------------------------------------------
   2.  CONTROL  DATA  FOR  THE  RUN
--------------------------------------------------------------------------------

default_name

General flags:
     imin    =       0, nmropt  =       0

Nature and format of input:
     ntx     =       1, irest   =       0, ntrx    =       1

Nature and format of output:
     ntxo    =       2, ntpr    =    1000, ntrx    =       1, ntwr    =    1000
     iwrap   =       0, ntwx    =   50000, ntwv    =      -1, ntwe    =       0
     ioutfm  =       1, ntwprt  =       0, idecomp =       0, rbornstat=      0

Potential function:
     ntf     =       1, ntb     =       1, igb     =       0, nsnb    =      25
     ipol    =       0, gbsa    =       0, iesp    =       0
     dielc   =   1.00000, cut     =  10.00000, intdiel =   1.00000

Frozen or restrained atoms:
     ibelly  =       0, ntr     =       0

Molecular dynamics:
     nstlim  =   1000000, nscm    =      1000, nrespa  =         1
     t       =   0.00000, dt      =   0.00100, vlimit  =  -1.00000

Langevin dynamics temperature regulation:
     ig      =  942122
     temp0   = 300.00000, tempi   = 300.00000, gamma_ln=   2.00000

Free energy options:
     icfe    =       1, ifsc    =       0, klambda =       1
     clambda =  0.9908, scalpha =  0.5000, scbeta  = 12.0000
     sceeorder =       2
     dynlmb =  0.0000 logdvdl =       0

Ewald parameters:
     verbose =       0, ew_type =       0, nbflag  =       1, use_pme =       1
     vdwmeth =       1, eedmeth =       1, netfrc  =       1
     Box X =   67.054   Box Y =   67.054   Box Z =   67.054
     Alpha =  109.471   Beta  =  109.471   Gamma =  109.471
     NFFT1 =   64       NFFT2 =   64       NFFT3 =   64
     Cutoff=   10.000   Tol   =0.100E-04
     Ewald Coefficient =  0.27511
     Interpolation order =    4
     TI Mask 1 :1; matches     12 atoms
     TI Mask 2 :2; matches     12 atoms
     TI region 1:      12 atoms
     TI region 2:      12 atoms
Removing charge of      -0.6664 from atom      13
Removing charge of      -0.6664 from atom      14
Removing charge of      -0.0664 from atom      15
Removing charge of      -0.0664 from atom      16
Removing charge of       0.2792 from atom      17
Removing charge of       0.2802 from atom      18
Removing charge of       0.2802 from atom      19
Removing charge of       0.2792 from atom      20
Removing charge of       0.0898 from atom      21
Removing charge of       0.0837 from atom      22
Removing charge of       0.0898 from atom      23
Removing charge of       0.0837 from atom      24
Total charge of  -0.00000000 removed from      12 atoms
     Checking for mismatched coordinates.

--------------------------------------------------------------------------------
   3.  ATOMIC COORDINATES AND VELOCITIES
--------------------------------------------------------------------------------

default_name
 begin time read from input coords =     0.000 ps

 Number of triangulated 3-point waters found:        0

     Sum of charges for TI region  1 =  -0.00000000
     Skip neutralizing charges...

     Sum of charges for TI region  2 =   0.00000000
     Skip neutralizing charges...

--------------------------------------------------------------------------------
   4.  RESULTS
 NSTEP =        0   TIME(PS) =       0.000  TEMP(K) =   319.57  PRESS =     0.0
 Etot   =        11.8934  EKtot   =        11.4309  EPtot      =         0.4625
 BOND   =         0.0111  ANGLE   =         0.0687  DIHED      =         0.0510
 1-4 NB =         0.2818  1-4 EEL =         0.3769  VDWAALS    =        -0.0789
 EELEC  =        -0.2479  EHBOND  =         0.0000  RESTRAINT  =         0.0000
 DV/DL  =       -13.9851
 ------------------------------------------------------------------------------

      A V E R A G E S   O V E R    1000 S T E P S

 NSTEP =     1000   TIME(PS) =       1.000  TEMP(K) =   394.53  PRESS =     0.0
 Etot   =        23.5650  EKtot   =        14.1121  EPtot      =         9.4529
 BOND   =         3.6518  ANGLE   =         4.7002  DIHED      =         0.7290
 1-4 NB =         0.3189  1-4 EEL =         0.3752  VDWAALS    =        -0.0767
 EELEC  =        -0.2454  EHBOND  =         0.0000  RESTRAINT  =         0.0000
 DV/DL  =       -14.0712
 ------------------------------------------------------------------------------

      R M S  F L U C T U A T I O N S

 NSTEP =     1000   TIME(PS) =       1.000  TEMP(K) =    85.11  PRESS =     0.0
 Etot   =         4.3413  EKtot   =         3.0443  EPtot      =         2.5982
 BOND   =         1.6750  ANGLE   =         1.5113  DIHED      =         0.3739
 1-4 NB =         0.2344  1-4 EEL =         0.0110  VDWAALS    =         0.0125
 EELEC  =         0.0111  EHBOND  =         0.0000  RESTRAINT  =         0.0000
 DV/DL  =         0.8011
 ------------------------------------------------------------------------------

      A V E R A G E S   O V E R    1000 S T E P S

 NSTEP =     1000   TIME(PS) =       1.000  TEMP(K) =   394.46  PRESS =     0.0
 Etot   =        23.5626  EKtot   =        14.1096  EPtot      =         9.4529
 BOND   =         3.6518  ANGLE   =         4.7002  DIHED      =         0.7290
 1-4 NB =         0.3189  1-4 EEL =         0.3752  VDWAALS    =        -0.0767
 EELEC  =        -0.2454  EHBOND  =         0.0000  RESTRAINT  =         0.0000
 DV/DL  =       -14.0712
 ------------------------------------------------------------------------------

      R M S  F L U C T U A T I O N S

 NSTEP =     1000   TIME(PS) =       1.000  TEMP(K) =    85.24  PRESS =     0.0
 Etot   =         4.3447  EKtot   =         3.0489  EPtot      =         2.5982
 BOND   =         1.6750  ANGLE   =         1.5113  DIHED      =         0.3739
 1-4 NB =         0.2344  1-4 EEL =         0.0110  VDWAALS    =         0.0125
 EELEC  =         0.0111  EHBOND  =         0.0000  RESTRAINT  =         0.0000
 DV/DL  =         0.8011
 ------------------------------------------------------------------------------

      DV/DL, AVERAGES OVER    1000 STEPS

 NSTEP =     1000   TIME(PS) =       1.000  TEMP(K) =    85.24  PRESS =     0.0
 Etot   =         0.0000  EKtot   =         0.0000  EPtot      =       -14.0712
 BOND   =        -0.0028  ANGLE   =         0.0029  DIHED      =        -0.0003
 1-4 NB =         0.0000  1-4 EEL =       -40.6908  VDWAALS    =        -0.0000
 EELEC  =        26.6197  EHBOND  =         0.0000  RESTRAINT  =         0.0000
 DV/DL  =       -14.0712
 ------------------------------------------------------------------------------

      A V E R A G E S   O V E R    1000 S T E P S

 NSTEP =     2000   TIME(PS) =       2.000  TEMP(K) =   375.64  PRESS =     0.0
 Etot   =        26.0635  EKtot   =        13.4364  EPtot      =        12.6270
 BOND   =         5.4848  ANGLE   =         5.9263  DIHED      =         0.8024
 1-4 NB =         0.3594  1-4 EEL =         0.3734  VDWAALS    =        -0.0759
 EELEC  =        -0.2434  EHBOND  =         0.0000  RESTRAINT  =         0.0000
 DV/DL  =       -14.0913
 ------------------------------------------------------------------------------

      R M S  F L U C T U A T I O N S

 NSTEP =     2000   TIME(PS) =       2.000  TEMP(K) =    62.36  PRESS =     0.0
 Etot   =         1.2631  EKtot   =         2.2307  EPtot      =         2.3665
 BOND   =         1.8165  ANGLE   =         1.6225  DIHED      =         0.4149
 1-4 NB =         0.2855  1-4 EEL =         0.0172  VDWAALS    =         0.0148
 EELEC  =         0.0164  EHBOND  =         0.0000  RESTRAINT  =         0.0000
 DV/DL  =         0.8264
 ------------------------------------------------------------------------------

      A V E R A G E S   O V E R    1000 S T E P S

 NSTEP =     2000   TIME(PS) =       2.000  TEMP(K) =   375.83  PRESS =     0.0
 Etot   =        26.0702  EKtot   =        13.4431  EPtot      =        12.6270
 BOND   =         5.4848  ANGLE   =         5.9263  DIHED      =         0.8024
 1-4 NB =         0.3594  1-4 EEL =         0.3734  VDWAALS    =        -0.0759
 EELEC  =        -0.2434  EHBOND  =         0.0000  RESTRAINT  =         0.0000
 DV/DL  =       -14.0913
 ------------------------------------------------------------------------------

      R M S  F L U C T U A T I O N S

 NSTEP =     2000   TIME(PS) =       2.000  TEMP(K) =    62.29  PRESS =     0.0
 Etot   =         1.2785  EKtot   =         2.2282  EPtot      =         2.3665
 BOND   =         1.8165  ANGLE   =         1.6225  DIHED      =         0.4149
 1-4 NB =         0.2855  1-4 EEL =         0.0172  VDWAALS    =         0.0148
 EELEC  =         0.0164  EHBOND  =         0.0000  RESTRAINT  =         0.0000
 DV/DL  =         0.8264
 ------------------------------------------------------------------------------

      DV/DL, AVERAGES OVER    1000 STEPS

 NSTEP =     2000   TIME(PS) =       2.000  TEMP(K) =    62.29  PRESS =     0.0
 Etot   =         0.0000  EKtot   =         0.0000  EPtot      =       -14.0913
 BOND   =        -0.0025  ANGLE   =         0.0021  DIHED      =        -0.0001
 1-4 NB =        -0.0001  1-4 EEL =       -40.4949  VDWAALS    =        -0.0000
 EELEC  =        26.4042  EHBOND  =         0.0000  RESTRAINT  =         0.0000
 DV/DL  =       -14.0913
 ------------------------------------------------------------------------------

      A V E R A G E S   O V E R    1000 S T E P S

 NSTEP =  1000000   TIME(PS) =    1000.000  TEMP(K) =   394.90  PRESS =     0.0
 Etot   =        27.9398  EKtot   =        14.1254  EPtot      =        13.8145
 BOND   =         5.4044  ANGLE   =         6.7437  DIHED      =         1.4754
 1-4 NB =         0.1153  1-4 EEL =         0.2595  VDWAALS    =        -0.0495
 EELEC  =        -0.1343  EHBOND  =         0.0000  RESTRAINT  =         0.0000
 DV/DL  =       -13.5821
 ------------------------------------------------------------------------------

      R M S  F L U C T U A T I O N S

 NSTEP =  1000000   TIME(PS) =    1000.000  TEMP(K) =    71.60  PRESS =     0.0
 Etot   =         2.1736  EKtot   =         2.5609  EPtot      =         2.6890
 BOND   =         1.9438  ANGLE   =         2.1319  DIHED      =         0.9644
 1-4 NB =         0.1946  1-4 EEL =         0.0088  VDWAALS    =         0.0075
 EELEC  =         0.0054  EHBOND  =         0.0000  RESTRAINT  =         0.0000
 DV/DL  =         0.5979
 ------------------------------------------------------------------------------

      A V E R A G E S   O V E R    1000 S T E P S

 NSTEP =  1000000   TIME(PS) =    1000.000  TEMP(K) =   394.53  PRESS =     0.0
 Etot   =        27.9267  EKtot   =        14.1123  EPtot      =        13.8145
 BOND   =         5.4044  ANGLE   =         6.7437  DIHED      =         1.4754
 1-4 NB =         0.1153  1-4 EEL =         0.2595  VDWAALS    =        -0.0495
 EELEC  =        -0.1343  EHBOND  =         0.0000  RESTRAINT  =         0.0000
 DV/DL  =       -13.5821
 ------------------------------------------------------------------------------

      R M S  F L U C T U A T I O N S

 NSTEP =  1000000   TIME(PS) =    1000.000  TEMP(K) =    71.39  PRESS =     0.0
 Etot   =         2.1854  EKtot   =         2.5535  EPtot      =         2.6890
 BOND   =         1.9438  ANGLE   =         2.1319  DIHED      =         0.9644
 1-4 NB =         0.1946  1-4 EEL =         0.0088  VDWAALS    =         0.0075
 EELEC  =         0.0054  EHBOND  =         0.0000  RESTRAINT  =         0.0000
 DV/DL  =         0.5979
 ------------------------------------------------------------------------------

      DV/DL, AVERAGES OVER    1000 STEPS

 NSTEP =  1000000   TIME(PS) =    1000.000  TEMP(K) =    71.39  PRESS =     0.0
 Etot   =         0.0000  EKtot   =         0.0000  EPtot      =       -13.5821
 BOND   =        -0.0030  ANGLE   =        -0.0022  DIHED      =        -0.0001
 1-4 NB =         0.0001  1-4 EEL =       -28.1408  VDWAALS    =         0.0000
 EELEC  =        14.5638  EHBOND  =         0.0000  RESTRAINT  =         0.0000
 DV/DL  =       -13.5821
 ------------------------------------------------------------------------------

      A V E R A G E S   O V E R 1000000 S T E P S

 NSTEP =  1000000   TIME(PS) =    1000.000  TEMP(K) =   369.24  PRESS =     0.0
 Etot   =        25.4656  EKtot   =        13.2076  EPtot      =        12.2580
 BOND   =         5.1507  ANGLE   =         5.6124  DIHED      =         1.1905
 1-4 NB =         0.2425  1-4 EEL =         0.3022  VDWAALS    =        -0.0633
 EELEC  =        -0.1770  EHBOND  =         0.0000  RESTRAINT  =         0.0000
 DV/DL  =       -13.5766
 ------------------------------------------------------------------------------

      R M S  F L U C T U A T I O N S

 NSTEP =  1000000   TIME(PS) =    1000.000  TEMP(K) =    87.91  PRESS =     0.0
 Etot   =         4.3814  EKtot   =         3.1446  EPtot      =         3.1412
 BOND   =         2.2336  ANGLE   =         2.0014  DIHED      =         0.8428
 1-4 NB =         0.3045  1-4 EEL =         0.0532  VDWAALS    =         0.0291
 EELEC  =         0.0525  EHBOND  =         0.0000  RESTRAINT  =         0.0000
 DV/DL  =         0.9311
 ------------------------------------------------------------------------------

      A V E R A G E S   O V E R 1000000 S T E P S

 NSTEP =  1000000   TIME(PS) =    1000.000  TEMP(K) =   369.24  PRESS =     0.0
 Etot   =        25.4655  EKtot   =        13.2075  EPtot      =        12.2580
 BOND   =         5.1507  ANGLE   =         5.6124  DIHED      =         1.1905
 1-4 NB =         0.2425  1-4 EEL =         0.3022  VDWAALS    =        -0.0633
 EELEC  =        -0.1770  EHBOND  =         0.0000  RESTRAINT  =         0.0000
 DV/DL  =       -13.5766
 ------------------------------------------------------------------------------

      R M S  F L U C T U A T I O N S

 NSTEP =  1000000   TIME(PS) =    1000.000  TEMP(K) =    87.91  PRESS =     0.0
 Etot   =         4.3814  EKtot   =         3.1445  EPtot      =         3.1412
 BOND   =         2.2336  ANGLE   =         2.0014  DIHED      =         0.8428
 1-4 NB =         0.3045  1-4 EEL =         0.0532  VDWAALS    =         0.0291
 EELEC  =         0.0525  EHBOND  =         0.0000  RESTRAINT  =         0.0000
 DV/DL  =         0.9311
 ------------------------------------------------------------------------------

      DV/DL, AVERAGES OVER 1000000 STEPS

 NSTEP =  1000000   TIME(PS) =    1000.000  TEMP(K) =    87.91  PRESS =     0.0
 Etot   =         0.0000  EKtot   =         0.0000  EPtot      =       -13.5766
 BOND   =        -0.0000  ANGLE   =         0.0000  DIHED      =        -0.0000
 1-4 NB =        -0.0000  1-4 EEL =       -32.7753  VDWAALS    =        -0.0000
 EELEC  =        19.1988  EHBOND  =         0.0000  RESTRAINT  =         0.0000
 DV/DL  =       -13.5766
 ------------------------------------------------------------------------------
