-------------------------------------------------------
          Amber 20 PMEMD                              2020
          -------------------------------------------------------

  [-O]verwriting output

File Assignments:

 Here is the input file:

 &cntrl
   nstlim=500000, nscm=1000,
   ntx=5, irest=1, ntpr=1000,
   tempi=300.0, temp0=300.0, ntt=3, gamma_ln=2.0,
   ntp=1, pres0=1.01325, taup=5.0,
   ntb=2, igb=0, cut=10.0,
   dt=0.002, ig=-1,
   ntc=2, ntf=2,
   iwrap=0,
   ntwr=1000, ntwx=50000, ntave=1000,
   ioutfm=1, ntwv=-1,
   ifsc = 0, icfe=1,
   clambda=0.31608,
   timask1=':1',
   timask2=':2', crgmask = ':2',
/

Note: ig = -1. Setting random seed to   710228 based on wallclock time in
      microseconds.

--------------------------------------------------------------------------------
   1.  RESOURCE   USE:
--------------------------------------------------------------------------------

 getting box info from netcdf restart file
 NATOM  =   20967 NTYPES =       6 NBONH =   20959 MBONA  =       6
 NTHETH =      32 MTHETA =       4 NPHIH =      40 MPHIA  =       2
 NHPARM =       0 NPARM  =       0 NNB   =   28026 NRES   =    6983
 NBONA  =       6 NTHETA =       4 NPHIA =       2 NUMBND =       6
 NUMANG =       6 NPTRA  =       2 NATYP =       6 NPHB   =       1
 IFBOX  =       2 NMXRS  =      12 IFCAP =       0 NEXTRA =       0
 NCOPY  =       0

     BOX TYPE: TRUNCATED OCTAHEDRON

--------------------------------------------------------------------------------
   2.  CONTROL  DATA  FOR  THE  RUN
--------------------------------------------------------------------------------

default_name

General flags:
     imin    =       0, nmropt  =       0

Nature and format of input:
     ntx     =       5, irest   =       1, ntrx    =       1

Nature and format of output:
     ntxo    =       2, ntpr    =    1000, ntrx    =       1, ntwr    =    1000
     iwrap   =       0, ntwx    =   50000, ntwv    =      -1, ntwe    =       0
     ioutfm  =       1, ntwprt  =       0, idecomp =       0, rbornstat=      0

Potential function:
     ntf     =       2, ntb     =       2, igb     =       0, nsnb    =      25
     ipol    =       0, gbsa    =       0, iesp    =       0
     dielc   =   1.00000, cut     =  10.00000, intdiel =   1.00000

Frozen or restrained atoms:
     ibelly  =       0, ntr     =       0

Molecular dynamics:
     nstlim  =    500000, nscm    =      1000, nrespa  =         1
     t       =   0.00000, dt      =   0.00200, vlimit  =  -1.00000

Langevin dynamics temperature regulation:
     ig      =  710228
     temp0   = 300.00000, tempi   = 300.00000, gamma_ln=   2.00000

Pressure regulation:
     ntp     =       1
     pres0   =   1.01325, comp    =  44.60000, taup    =   5.00000

SHAKE:
     ntc     =       2, jfastw  =       0
     tol     =   0.00001

Free energy options:
     icfe    =       1, ifsc    =       0, klambda =       1
     clambda =  0.3161, scalpha =  0.5000, scbeta  = 12.0000
     sceeorder =       2
     dynlmb =  0.0000 logdvdl =       0

Ewald parameters:
     verbose =       0, ew_type =       0, nbflag  =       1, use_pme =       1
     vdwmeth =       1, eedmeth =       1, netfrc  =       1
     Box X =   67.054   Box Y =   67.054   Box Z =   67.054
     Alpha =  109.471   Beta  =  109.471   Gamma =  109.471
     NFFT1 =   64       NFFT2 =   64       NFFT3 =   64
     Cutoff=   10.000   Tol   =0.100E-04
     Ewald Coefficient =  0.27511
     Interpolation order =    4
     TI Mask 1 :1; matches     12 atoms
     TI Mask 2 :2; matches     12 atoms
     TI region 1:   20955 atoms
     TI region 2:   20955 atoms
Removing charge of      -0.6664 from atom      13
Removing charge of      -0.6664 from atom      14
Removing charge of      -0.0664 from atom      15
Removing charge of      -0.0664 from atom      16
Removing charge of       0.2792 from atom      17
Removing charge of       0.2802 from atom      18
Removing charge of       0.2802 from atom      19
Removing charge of       0.2792 from atom      20
Removing charge of       0.0898 from atom      21
Removing charge of       0.0837 from atom      22
Removing charge of       0.0898 from atom      23
Removing charge of       0.0837 from atom      24
Total charge of  -0.00000000 removed from      12 atoms
     Checking for mismatched coordinates.

--------------------------------------------------------------------------------
   3.  ATOMIC COORDINATES AND VELOCITIES
--------------------------------------------------------------------------------

default_name
 begin time read from input coords =   200.000 ps

 Number of triangulated 3-point waters found:     6981

     Sum of charges for TI region  1 =  -0.00000000
     Skip neutralizing charges...

     Sum of charges for TI region  2 =   0.00000000
     Skip neutralizing charges...

--------------------------------------------------------------------------------
   4.  RESULTS
 NSTEP =     1000   TIME(PS) =     202.000  TEMP(K) =   300.82  PRESS =  -711.0
 Etot   =    -52954.6947  EKtot   =     12527.7226  EPtot      =    -65482.4173
 BOND   =         1.1778  ANGLE   =         3.9356  DIHED      =         0.3311
 1-4 NB =         0.8604  1-4 EEL =        28.7708  VDWAALS    =      9625.7598
 EELEC  =    -75143.2528  EHBOND  =         0.0000  RESTRAINT  =         0.0000
 EKCMT  =      6339.0132  VIRIAL  =      9848.8998  VOLUME     =    228636.1762
                                                    Density    =         0.9139
 DV/DL  =        -4.0112
 ------------------------------------------------------------------------------

      A V E R A G E S   O V E R    1000 S T E P S

 NSTEP =     1000   TIME(PS) =     202.000  TEMP(K) =   300.31  PRESS =  -838.6
 Etot   =    -52933.3663  EKtot   =     12506.6779  EPtot      =    -65440.0442
 BOND   =         0.8185  ANGLE   =         4.7570  DIHED      =         1.0614
 1-4 NB =         0.4453  1-4 EEL =        26.6311  VDWAALS    =      9575.4317
 EELEC  =    -75049.1893  EHBOND  =         0.0000  RESTRAINT  =         0.0000
 EKCMT  =      6293.0587  VIRIAL  =     10463.8943  VOLUME     =    230332.1034
                                                    Density    =         0.9072
 DV/DL  =        -5.9783
 ------------------------------------------------------------------------------

      R M S  F L U C T U A T I O N S

 NSTEP =     1000   TIME(PS) =     202.000  TEMP(K) =     2.02  PRESS =   146.4
 Etot   =       108.2488  EKtot   =        84.2654  EPtot      =       103.3791
 BOND   =         0.7269  ANGLE   =         1.4027  DIHED      =         0.7558
 1-4 NB =         0.3499  1-4 EEL =         1.6684  VDWAALS    =       136.5911
 EELEC  =       159.8553  EHBOND  =         0.0000  RESTRAINT  =         0.0000
 EKCMT  =        64.9675  VIRIAL  =       728.0676  VOLUME     =      1037.7774
                                                    Density    =         0.0041
 DV/DL  =         2.2941
 ------------------------------------------------------------------------------

      A V E R A G E S   O V E R    1000 S T E P S

 NSTEP =     1000   TIME(PS) =     202.000  TEMP(K) =   300.31  PRESS =  -838.6
 Etot   =    -52933.3663  EKtot   =     12506.6779  EPtot      =    -65440.0442
 BOND   =         0.8185  ANGLE   =         4.7570  DIHED      =         1.0614
 1-4 NB =         0.4453  1-4 EEL =        26.6311  VDWAALS    =      9575.4317
 EELEC  =    -75049.1893  EHBOND  =         0.0000  RESTRAINT  =         0.0000
 EKCMT  =      6293.0587  VIRIAL  =     10463.8943  VOLUME     =    230332.1034
                                                    Density    =         0.9072
 DV/DL  =        -5.9783
 ------------------------------------------------------------------------------

      R M S  F L U C T U A T I O N S

 NSTEP =     1000   TIME(PS) =     202.000  TEMP(K) =     2.02  PRESS =   146.4
 Etot   =       108.2488  EKtot   =        84.2654  EPtot      =       103.3791
 BOND   =         0.7269  ANGLE   =         1.4027  DIHED      =         0.7558
 1-4 NB =         0.3499  1-4 EEL =         1.6684  VDWAALS    =       136.5911
 EELEC  =       159.8553  EHBOND  =         0.0000  RESTRAINT  =         0.0000
 EKCMT  =        64.9675  VIRIAL  =       728.0676  VOLUME     =      1037.7774
                                                    Density    =         0.0041
 DV/DL  =         2.2941
 ------------------------------------------------------------------------------

      DV/DL, AVERAGES OVER    1000 STEPS

 NSTEP =     1000   TIME(PS) =     202.000  TEMP(K) =     2.02  PRESS =     0.0
 Etot   =         0.0000  EKtot   =         0.0000  EPtot      =        -5.9783
 BOND   =         0.0000  ANGLE   =         0.0000  DIHED      =         0.0000
 1-4 NB =         0.0000  1-4 EEL =       -38.9389  VDWAALS    =         0.0000
 EELEC  =        32.9606  EHBOND  =         0.0000  RESTRAINT  =         0.0000
 EKCMT  =         0.0000  VIRIAL  =         0.0000  VOLUME     =         0.0000
                                                    Density    =         0.0000
 DV/DL  =        -5.9783
 ------------------------------------------------------------------------------

      A V E R A G E S   O V E R    1000 S T E P S

 NSTEP =     2000   TIME(PS) =     204.000  TEMP(K) =   298.84  PRESS =  -757.2
 Etot   =    -53231.2242  EKtot   =     12445.2842  EPtot      =    -65676.5084
 BOND   =         0.7544  ANGLE   =         3.8057  DIHED      =         1.2505
 1-4 NB =         0.5680  1-4 EEL =        27.3732  VDWAALS    =      9634.9057
 EELEC  =    -75345.1660  EHBOND  =         0.0000  RESTRAINT  =         0.0000
 EKCMT  =      6240.1770  VIRIAL  =      9953.0908  VOLUME     =    227109.6420
                                                    Density    =         0.9200
 DV/DL  =        -7.3655
 ------------------------------------------------------------------------------

      R M S  F L U C T U A T I O N S

 NSTEP =     2000   TIME(PS) =     204.000  TEMP(K) =     1.81  PRESS =    89.1
 Etot   =        86.8246  EKtot   =        75.1820  EPtot      =        84.3801
 BOND   =         0.6106  ANGLE   =         1.3842  DIHED      =         0.9070
 1-4 NB =         0.5204  1-4 EEL =         1.3358  VDWAALS    =        84.4341
 EELEC  =       104.3107  EHBOND  =         0.0000  RESTRAINT  =         0.0000
 EKCMT  =        54.5880  VIRIAL  =       437.4200  VOLUME     =       887.1417
                                                    Density    =         0.0036
 DV/DL  =         3.1069
 ------------------------------------------------------------------------------

      A V E R A G E S   O V E R    1000 S T E P S

 NSTEP =     2000   TIME(PS) =     204.000  TEMP(K) =   298.84  PRESS =  -757.2
 Etot   =    -53231.2242  EKtot   =     12445.2842  EPtot      =    -65676.5084
 BOND   =         0.7544  ANGLE   =         3.8057  DIHED      =         1.2505
 1-4 NB =         0.5680  1-4 EEL =        27.3732  VDWAALS    =      9634.9057
 EELEC  =    -75345.1660  EHBOND  =         0.0000  RESTRAINT  =         0.0000
 EKCMT  =      6240.1770  VIRIAL  =      9953.0908  VOLUME     =    227109.6420
                                                    Density    =         0.9200
 DV/DL  =        -7.3655
 ------------------------------------------------------------------------------

      R M S  F L U C T U A T I O N S

 NSTEP =     2000   TIME(PS) =     204.000  TEMP(K) =     1.81  PRESS =    89.1
 Etot   =        86.8246  EKtot   =        75.1820  EPtot      =        84.3801
 BOND   =         0.6106  ANGLE   =         1.3842  DIHED      =         0.9070
 1-4 NB =         0.5204  1-4 EEL =         1.3358  VDWAALS    =        84.4341
 EELEC  =       104.3107  EHBOND  =         0.0000  RESTRAINT  =         0.0000
 EKCMT  =        54.5880  VIRIAL  =       437.4200  VOLUME     =       887.1417
                                                    Density    =         0.0036
 DV/DL  =         3.1069
 ------------------------------------------------------------------------------

      DV/DL, AVERAGES OVER    1000 STEPS

 NSTEP =     2000   TIME(PS) =     204.000  TEMP(K) =     1.81  PRESS =     0.0
 Etot   =         0.0000  EKtot   =         0.0000  EPtot      =        -7.3655
 BOND   =         0.0000  ANGLE   =         0.0000  DIHED      =         0.0000
 1-4 NB =         0.0000  1-4 EEL =       -40.0240  VDWAALS    =         0.0000
 EELEC  =        32.6584  EHBOND  =         0.0000  RESTRAINT  =         0.0000
 EKCMT  =         0.0000  VIRIAL  =         0.0000  VOLUME     =         0.0000
                                                    Density    =         0.0000
 DV/DL  =        -7.3655
 ------------------------------------------------------------------------------

      A V E R A G E S   O V E R    1000 S T E P S

 NSTEP =   500000   TIME(PS) =    1200.000  TEMP(K) =   300.19  PRESS =    33.6
 Etot   =    -54076.1039  EKtot   =     12501.5307  EPtot      =    -66577.6346
 BOND   =         1.0930  ANGLE   =         5.0507  DIHED      =         0.9962
 1-4 NB =         0.2148  1-4 EEL =        19.8426  VDWAALS    =      9982.5334
 EELEC  =    -76587.3654  EHBOND  =         0.0000  RESTRAINT  =         0.0000
 EKCMT  =      6259.0446  VIRIAL  =      6104.9291  VOLUME     =    212725.2598
                                                    Density    =         0.9822
 DV/DL  =        -4.9700
 ------------------------------------------------------------------------------

      R M S  F L U C T U A T I O N S

 NSTEP =   500000   TIME(PS) =    1200.000  TEMP(K) =     1.68  PRESS =   124.1
 Etot   =        87.1675  EKtot   =        69.9582  EPtot      =        88.7306
 BOND   =         0.8930  ANGLE   =         2.0163  DIHED      =         0.5676
 1-4 NB =         0.2017  1-4 EEL =         0.5861  VDWAALS    =       115.4594
 EELEC  =       159.0487  EHBOND  =         0.0000  RESTRAINT  =         0.0000
 EKCMT  =        60.4281  VIRIAL  =       565.1676  VOLUME     =        50.4812
                                                    Density    =         0.0002
 DV/DL  =         2.8007
 ------------------------------------------------------------------------------

      A V E R A G E S   O V E R    1000 S T E P S

 NSTEP =   500000   TIME(PS) =    1200.000  TEMP(K) =   300.19  PRESS =    33.6
 Etot   =    -54076.1039  EKtot   =     12501.5307  EPtot      =    -66577.6346
 BOND   =         1.0930  ANGLE   =         5.0507  DIHED      =         0.9962
 1-4 NB =         0.2148  1-4 EEL =        19.8426  VDWAALS    =      9982.5334
 EELEC  =    -76587.3654  EHBOND  =         0.0000  RESTRAINT  =         0.0000
 EKCMT  =      6259.0446  VIRIAL  =      6104.9291  VOLUME     =    212725.2598
                                                    Density    =         0.9822
 DV/DL  =        -4.9700
 ------------------------------------------------------------------------------

      R M S  F L U C T U A T I O N S

 NSTEP =   500000   TIME(PS) =    1200.000  TEMP(K) =     1.68  PRESS =   124.1
 Etot   =        87.1675  EKtot   =        69.9582  EPtot      =        88.7306
 BOND   =         0.8930  ANGLE   =         2.0163  DIHED      =         0.5676
 1-4 NB =         0.2017  1-4 EEL =         0.5861  VDWAALS    =       115.4594
 EELEC  =       159.0487  EHBOND  =         0.0000  RESTRAINT  =         0.0000
 EKCMT  =        60.4281  VIRIAL  =       565.1676  VOLUME     =        50.4812
                                                    Density    =         0.0002
 DV/DL  =         2.8007
 ------------------------------------------------------------------------------

      DV/DL, AVERAGES OVER    1000 STEPS

 NSTEP =   500000   TIME(PS) =    1200.000  TEMP(K) =     1.68  PRESS =     0.0
 Etot   =         0.0000  EKtot   =         0.0000  EPtot      =        -4.9700
 BOND   =         0.0000  ANGLE   =         0.0000  DIHED      =         0.0000
 1-4 NB =         0.0000  1-4 EEL =       -29.0130  VDWAALS    =         0.0000
 EELEC  =        24.0430  EHBOND  =         0.0000  RESTRAINT  =         0.0000
 EKCMT  =         0.0000  VIRIAL  =         0.0000  VOLUME     =         0.0000
                                                    Density    =         0.0000
 DV/DL  =        -4.9700
 ------------------------------------------------------------------------------

      A V E R A G E S   O V E R  500000 S T E P S

 NSTEP =   500000   TIME(PS) =    1200.000  TEMP(K) =   300.01  PRESS =    -8.7
 Etot   =    -54084.4359  EKtot   =     12493.9534  EPtot      =    -66578.3893
 BOND   =         0.9441  ANGLE   =         4.8634  DIHED      =         1.1044
 1-4 NB =         0.4034  1-4 EEL =        23.9387  VDWAALS    =      9958.2599
 EELEC  =    -76567.9033  EHBOND  =         0.0000  RESTRAINT  =         0.0000
 EKCMT  =      6265.6260  VIRIAL  =      6307.7530  VOLUME     =    212765.0931
                                                    Density    =         0.9821
 DV/DL  =        -5.3130
 ------------------------------------------------------------------------------

      R M S  F L U C T U A T I O N S

 NSTEP =   500000   TIME(PS) =    1200.000  TEMP(K) =     2.09  PRESS =   147.0
 Etot   =       179.1014  EKtot   =        86.9930  EPtot      =       152.5811
 BOND   =         0.7743  ANGLE   =         1.7251  DIHED      =         0.7808
 1-4 NB =         0.4093  1-4 EEL =         4.1587  VDWAALS    =       128.9619
 EELEC  =       231.9898  EHBOND  =         0.0000  RESTRAINT  =         0.0000
 EKCMT  =        60.9027  VIRIAL  =       683.0171  VOLUME     =      1343.2575
                                                    Density    =         0.0059
 DV/DL  =         3.4263
 ------------------------------------------------------------------------------

      A V E R A G E S   O V E R  500000 S T E P S

 NSTEP =   500000   TIME(PS) =    1200.000  TEMP(K) =   300.01  PRESS =    -8.7
 Etot   =    -54084.4359  EKtot   =     12493.9534  EPtot      =    -66578.3893
 BOND   =         0.9441  ANGLE   =         4.8634  DIHED      =         1.1044
 1-4 NB =         0.4034  1-4 EEL =        23.9387  VDWAALS    =      9958.2599
 EELEC  =    -76567.9033  EHBOND  =         0.0000  RESTRAINT  =         0.0000
 EKCMT  =      6265.6260  VIRIAL  =      6307.7530  VOLUME     =    212765.0931
                                                    Density    =         0.9821
 DV/DL  =        -5.3130
 ------------------------------------------------------------------------------

      R M S  F L U C T U A T I O N S

 NSTEP =   500000   TIME(PS) =    1200.000  TEMP(K) =     2.09  PRESS =   147.0
 Etot   =       179.1014  EKtot   =        86.9930  EPtot      =       152.5811
 BOND   =         0.7743  ANGLE   =         1.7251  DIHED      =         0.7808
 1-4 NB =         0.4093  1-4 EEL =         4.1587  VDWAALS    =       128.9619
 EELEC  =       231.9898  EHBOND  =         0.0000  RESTRAINT  =         0.0000
 EKCMT  =        60.9027  VIRIAL  =       683.0171  VOLUME     =      1343.2575
                                                    Density    =         0.0059
 DV/DL  =         3.4263
 ------------------------------------------------------------------------------

      DV/DL, AVERAGES OVER  500000 STEPS

 NSTEP =   500000   TIME(PS) =    1200.000  TEMP(K) =     2.09  PRESS =     0.0
 Etot   =         0.0000  EKtot   =         0.0000  EPtot      =        -5.3130
 BOND   =         0.0000  ANGLE   =         0.0000  DIHED      =         0.0000
 1-4 NB =         0.0000  1-4 EEL =       -35.0022  VDWAALS    =         0.0000
 EELEC  =        29.6892  EHBOND  =         0.0000  RESTRAINT  =         0.0000
 EKCMT  =         0.0000  VIRIAL  =         0.0000  VOLUME     =         0.0000
                                                    Density    =         0.0000
 DV/DL  =        -5.3130
 ------------------------------------------------------------------------------
