-------------------------------------------------------
          Amber 20 PMEMD                              2020
          -------------------------------------------------------

  [-O]verwriting output

File Assignments:

 Here is the input file:

 &cntrl
   nstlim=500000, nscm=1000,
   ntx=5, irest=1, ntpr=1000,
   tempi=300.0, temp0=300.0, ntt=3, gamma_ln=2.0,
   ntp=1, pres0=1.01325, taup=5.0,
   ntb=2, igb=0, cut=10.0,
   dt=0.002, ig=-1,
   ntc=2, ntf=2,
   iwrap=0,
   ntwr=1000, ntwx=50000, ntave=1000,
   ioutfm=1, ntwv=-1,
   ifsc = 0, icfe=1,
   clambda=0.56262,
   timask1=':1',
   timask2=':2', crgmask = ':2',
/

Note: ig = -1. Setting random seed to   429688 based on wallclock time in
      microseconds.

--------------------------------------------------------------------------------
   1.  RESOURCE   USE:
--------------------------------------------------------------------------------

 getting box info from netcdf restart file
 NATOM  =   20967 NTYPES =       6 NBONH =   20959 MBONA  =       6
 NTHETH =      32 MTHETA =       4 NPHIH =      40 MPHIA  =       2
 NHPARM =       0 NPARM  =       0 NNB   =   28026 NRES   =    6983
 NBONA  =       6 NTHETA =       4 NPHIA =       2 NUMBND =       6
 NUMANG =       6 NPTRA  =       2 NATYP =       6 NPHB   =       1
 IFBOX  =       2 NMXRS  =      12 IFCAP =       0 NEXTRA =       0
 NCOPY  =       0

     BOX TYPE: TRUNCATED OCTAHEDRON

--------------------------------------------------------------------------------
   2.  CONTROL  DATA  FOR  THE  RUN
--------------------------------------------------------------------------------

default_name

General flags:
     imin    =       0, nmropt  =       0

Nature and format of input:
     ntx     =       5, irest   =       1, ntrx    =       1

Nature and format of output:
     ntxo    =       2, ntpr    =    1000, ntrx    =       1, ntwr    =    1000
     iwrap   =       0, ntwx    =   50000, ntwv    =      -1, ntwe    =       0
     ioutfm  =       1, ntwprt  =       0, idecomp =       0, rbornstat=      0

Potential function:
     ntf     =       2, ntb     =       2, igb     =       0, nsnb    =      25
     ipol    =       0, gbsa    =       0, iesp    =       0
     dielc   =   1.00000, cut     =  10.00000, intdiel =   1.00000

Frozen or restrained atoms:
     ibelly  =       0, ntr     =       0

Molecular dynamics:
     nstlim  =    500000, nscm    =      1000, nrespa  =         1
     t       =   0.00000, dt      =   0.00200, vlimit  =  -1.00000

Langevin dynamics temperature regulation:
     ig      =  429688
     temp0   = 300.00000, tempi   = 300.00000, gamma_ln=   2.00000

Pressure regulation:
     ntp     =       1
     pres0   =   1.01325, comp    =  44.60000, taup    =   5.00000

SHAKE:
     ntc     =       2, jfastw  =       0
     tol     =   0.00001

Free energy options:
     icfe    =       1, ifsc    =       0, klambda =       1
     clambda =  0.5626, scalpha =  0.5000, scbeta  = 12.0000
     sceeorder =       2
     dynlmb =  0.0000 logdvdl =       0

Ewald parameters:
     verbose =       0, ew_type =       0, nbflag  =       1, use_pme =       1
     vdwmeth =       1, eedmeth =       1, netfrc  =       1
     Box X =   67.054   Box Y =   67.054   Box Z =   67.054
     Alpha =  109.471   Beta  =  109.471   Gamma =  109.471
     NFFT1 =   64       NFFT2 =   64       NFFT3 =   64
     Cutoff=   10.000   Tol   =0.100E-04
     Ewald Coefficient =  0.27511
     Interpolation order =    4
     TI Mask 1 :1; matches     12 atoms
     TI Mask 2 :2; matches     12 atoms
     TI region 1:   20955 atoms
     TI region 2:   20955 atoms
Removing charge of      -0.6664 from atom      13
Removing charge of      -0.6664 from atom      14
Removing charge of      -0.0664 from atom      15
Removing charge of      -0.0664 from atom      16
Removing charge of       0.2792 from atom      17
Removing charge of       0.2802 from atom      18
Removing charge of       0.2802 from atom      19
Removing charge of       0.2792 from atom      20
Removing charge of       0.0898 from atom      21
Removing charge of       0.0837 from atom      22
Removing charge of       0.0898 from atom      23
Removing charge of       0.0837 from atom      24
Total charge of  -0.00000000 removed from      12 atoms
     Checking for mismatched coordinates.

--------------------------------------------------------------------------------
   3.  ATOMIC COORDINATES AND VELOCITIES
--------------------------------------------------------------------------------

default_name
 begin time read from input coords =   200.000 ps

 Number of triangulated 3-point waters found:     6981

     Sum of charges for TI region  1 =  -0.00000000
     Skip neutralizing charges...

     Sum of charges for TI region  2 =   0.00000000
     Skip neutralizing charges...

--------------------------------------------------------------------------------
   4.  RESULTS
 NSTEP =     1000   TIME(PS) =     202.000  TEMP(K) =   298.28  PRESS =  -497.2
 Etot   =    -53162.6799  EKtot   =     12421.8546  EPtot      =    -65584.5345
 BOND   =         0.8114  ANGLE   =         4.1086  DIHED      =         2.1999
 1-4 NB =         0.9319  1-4 EEL =        18.6877  VDWAALS    =      9782.8530
 EELEC  =    -75394.1270  EHBOND  =         0.0000  RESTRAINT  =         0.0000
 EKCMT  =      6211.9540  VIRIAL  =      8673.5905  VOLUME     =    229311.1775
                                                    Density    =         0.9112
 DV/DL  =        -8.7608
 ------------------------------------------------------------------------------

      A V E R A G E S   O V E R    1000 S T E P S

 NSTEP =     1000   TIME(PS) =     202.000  TEMP(K) =   299.71  PRESS =  -673.1
 Etot   =    -53141.5640  EKtot   =     12481.6657  EPtot      =    -65623.2297
 BOND   =         0.9012  ANGLE   =         4.7795  DIHED      =         1.0151
 1-4 NB =         0.7228  1-4 EEL =        18.0108  VDWAALS    =      9658.9931
 EELEC  =    -75307.6522  EHBOND  =         0.0000  RESTRAINT  =         0.0000
 EKCMT  =      6263.1401  VIRIAL  =      9615.9841  VOLUME     =    230710.6750
                                                    Density    =         0.9057
 DV/DL  =       -10.5088
 ------------------------------------------------------------------------------

      R M S  F L U C T U A T I O N S

 NSTEP =     1000   TIME(PS) =     202.000  TEMP(K) =     2.11  PRESS =   146.6
 Etot   =       151.4581  EKtot   =        88.0187  EPtot      =       120.7143
 BOND   =         0.8138  ANGLE   =         1.7454  DIHED      =         0.6838
 1-4 NB =         0.7788  1-4 EEL =         1.1691  VDWAALS    =       132.4763
 EELEC  =       175.9962  EHBOND  =         0.0000  RESTRAINT  =         0.0000
 EKCMT  =        58.5025  VIRIAL  =       707.5102  VOLUME     =       844.3435
                                                    Density    =         0.0033
 DV/DL  =         2.5069
 ------------------------------------------------------------------------------

      A V E R A G E S   O V E R    1000 S T E P S

 NSTEP =     1000   TIME(PS) =     202.000  TEMP(K) =   299.71  PRESS =  -673.1
 Etot   =    -53141.5640  EKtot   =     12481.6657  EPtot      =    -65623.2297
 BOND   =         0.9012  ANGLE   =         4.7795  DIHED      =         1.0151
 1-4 NB =         0.7228  1-4 EEL =        18.0108  VDWAALS    =      9658.9931
 EELEC  =    -75307.6522  EHBOND  =         0.0000  RESTRAINT  =         0.0000
 EKCMT  =      6263.1401  VIRIAL  =      9615.9841  VOLUME     =    230710.6750
                                                    Density    =         0.9057
 DV/DL  =       -10.5088
 ------------------------------------------------------------------------------

      R M S  F L U C T U A T I O N S

 NSTEP =     1000   TIME(PS) =     202.000  TEMP(K) =     2.11  PRESS =   146.6
 Etot   =       151.4581  EKtot   =        88.0187  EPtot      =       120.7143
 BOND   =         0.8138  ANGLE   =         1.7454  DIHED      =         0.6838
 1-4 NB =         0.7788  1-4 EEL =         1.1691  VDWAALS    =       132.4763
 EELEC  =       175.9962  EHBOND  =         0.0000  RESTRAINT  =         0.0000
 EKCMT  =        58.5025  VIRIAL  =       707.5102  VOLUME     =       844.3435
                                                    Density    =         0.0033
 DV/DL  =         2.5069
 ------------------------------------------------------------------------------

      DV/DL, AVERAGES OVER    1000 STEPS

 NSTEP =     1000   TIME(PS) =     202.000  TEMP(K) =     2.11  PRESS =     0.0
 Etot   =         0.0000  EKtot   =         0.0000  EPtot      =       -10.5088
 BOND   =         0.0000  ANGLE   =         0.0000  DIHED      =         0.0000
 1-4 NB =         0.0000  1-4 EEL =       -41.1787  VDWAALS    =         0.0000
 EELEC  =        30.6699  EHBOND  =         0.0000  RESTRAINT  =         0.0000
 EKCMT  =         0.0000  VIRIAL  =         0.0000  VOLUME     =         0.0000
                                                    Density    =         0.0000
 DV/DL  =       -10.5088
 ------------------------------------------------------------------------------

      A V E R A G E S   O V E R    1000 S T E P S

 NSTEP =     2000   TIME(PS) =     204.000  TEMP(K) =   300.75  PRESS =  -551.4
 Etot   =    -53171.1598  EKtot   =     12525.0353  EPtot      =    -65696.1951
 BOND   =         1.1006  ANGLE   =         5.0177  DIHED      =         0.9804
 1-4 NB =         0.5771  1-4 EEL =        17.8494  VDWAALS    =      9685.6895
 EELEC  =    -75407.4098  EHBOND  =         0.0000  RESTRAINT  =         0.0000
 EKCMT  =      6290.3314  VIRIAL  =      9007.0512  VOLUME     =    228206.5479
                                                    Density    =         0.9156
 DV/DL  =        -8.8761
 ------------------------------------------------------------------------------

      R M S  F L U C T U A T I O N S

 NSTEP =     2000   TIME(PS) =     204.000  TEMP(K) =     1.64  PRESS =   113.1
 Etot   =        72.8294  EKtot   =        68.3146  EPtot      =        77.5401
 BOND   =         0.8125  ANGLE   =         1.5176  DIHED      =         0.6855
 1-4 NB =         0.4694  1-4 EEL =         1.0922  VDWAALS    =       125.8087
 EELEC  =       165.3533  EHBOND  =         0.0000  RESTRAINT  =         0.0000
 EKCMT  =        50.1529  VIRIAL  =       566.6121  VOLUME     =       634.1111
                                                    Density    =         0.0025
 DV/DL  =         3.4639
 ------------------------------------------------------------------------------

      A V E R A G E S   O V E R    1000 S T E P S

 NSTEP =     2000   TIME(PS) =     204.000  TEMP(K) =   300.75  PRESS =  -551.4
 Etot   =    -53171.1598  EKtot   =     12525.0353  EPtot      =    -65696.1951
 BOND   =         1.1006  ANGLE   =         5.0177  DIHED      =         0.9804
 1-4 NB =         0.5771  1-4 EEL =        17.8494  VDWAALS    =      9685.6895
 EELEC  =    -75407.4098  EHBOND  =         0.0000  RESTRAINT  =         0.0000
 EKCMT  =      6290.3314  VIRIAL  =      9007.0512  VOLUME     =    228206.5479
                                                    Density    =         0.9156
 DV/DL  =        -8.8761
 ------------------------------------------------------------------------------

      R M S  F L U C T U A T I O N S

 NSTEP =     2000   TIME(PS) =     204.000  TEMP(K) =     1.64  PRESS =   113.1
 Etot   =        72.8294  EKtot   =        68.3146  EPtot      =        77.5401
 BOND   =         0.8125  ANGLE   =         1.5176  DIHED      =         0.6855
 1-4 NB =         0.4694  1-4 EEL =         1.0922  VDWAALS    =       125.8087
 EELEC  =       165.3533  EHBOND  =         0.0000  RESTRAINT  =         0.0000
 EKCMT  =        50.1529  VIRIAL  =       566.6121  VOLUME     =       634.1111
                                                    Density    =         0.0025
 DV/DL  =         3.4639
 ------------------------------------------------------------------------------

      DV/DL, AVERAGES OVER    1000 STEPS

 NSTEP =     2000   TIME(PS) =     204.000  TEMP(K) =     1.64  PRESS =     0.0
 Etot   =         0.0000  EKtot   =         0.0000  EPtot      =        -8.8761
 BOND   =         0.0000  ANGLE   =         0.0000  DIHED      =         0.0000
 1-4 NB =         0.0000  1-4 EEL =       -40.8098  VDWAALS    =         0.0000
 EELEC  =        31.9337  EHBOND  =         0.0000  RESTRAINT  =         0.0000
 EKCMT  =         0.0000  VIRIAL  =         0.0000  VOLUME     =         0.0000
                                                    Density    =         0.0000
 DV/DL  =        -8.8761
 ------------------------------------------------------------------------------

      A V E R A G E S   O V E R    1000 S T E P S

 NSTEP =   500000   TIME(PS) =    1200.000  TEMP(K) =   299.20  PRESS =    19.8
 Etot   =    -54221.3424  EKtot   =     12460.3019  EPtot      =    -66681.6444
 BOND   =         0.6950  ANGLE   =         4.2334  DIHED      =         0.9164
 1-4 NB =         0.1786  1-4 EEL =        12.2699  VDWAALS    =     10027.2968
 EELEC  =    -76727.2346  EHBOND  =         0.0000  RESTRAINT  =         0.0000
 EKCMT  =      6249.8736  VIRIAL  =      6159.1158  VOLUME     =    212582.5449
                                                    Density    =         0.9829
 DV/DL  =        -8.9715
 ------------------------------------------------------------------------------

      R M S  F L U C T U A T I O N S

 NSTEP =   500000   TIME(PS) =    1200.000  TEMP(K) =     1.72  PRESS =   141.1
 Etot   =        65.4816  EKtot   =        71.5036  EPtot      =        71.6740
 BOND   =         0.6073  ANGLE   =         1.4610  DIHED      =         0.5728
 1-4 NB =         0.2246  1-4 EEL =         0.2842  VDWAALS    =       137.2192
 EELEC  =       168.4938  EHBOND  =         0.0000  RESTRAINT  =         0.0000
 EKCMT  =        58.5413  VIRIAL  =       644.3208  VOLUME     =        56.8001
                                                    Density    =         0.0003
 DV/DL  =         2.8782
 ------------------------------------------------------------------------------

      A V E R A G E S   O V E R    1000 S T E P S

 NSTEP =   500000   TIME(PS) =    1200.000  TEMP(K) =   299.20  PRESS =    19.8
 Etot   =    -54221.3424  EKtot   =     12460.3019  EPtot      =    -66681.6444
 BOND   =         0.6950  ANGLE   =         4.2334  DIHED      =         0.9164
 1-4 NB =         0.1786  1-4 EEL =        12.2699  VDWAALS    =     10027.2968
 EELEC  =    -76727.2346  EHBOND  =         0.0000  RESTRAINT  =         0.0000
 EKCMT  =      6249.8736  VIRIAL  =      6159.1158  VOLUME     =    212582.5449
                                                    Density    =         0.9829
 DV/DL  =        -8.9715
 ------------------------------------------------------------------------------

      R M S  F L U C T U A T I O N S

 NSTEP =   500000   TIME(PS) =    1200.000  TEMP(K) =     1.72  PRESS =   141.1
 Etot   =        65.4816  EKtot   =        71.5036  EPtot      =        71.6740
 BOND   =         0.6073  ANGLE   =         1.4610  DIHED      =         0.5728
 1-4 NB =         0.2246  1-4 EEL =         0.2842  VDWAALS    =       137.2192
 EELEC  =       168.4938  EHBOND  =         0.0000  RESTRAINT  =         0.0000
 EKCMT  =        58.5413  VIRIAL  =       644.3208  VOLUME     =        56.8001
                                                    Density    =         0.0003
 DV/DL  =         2.8782
 ------------------------------------------------------------------------------

      DV/DL, AVERAGES OVER    1000 STEPS

 NSTEP =   500000   TIME(PS) =    1200.000  TEMP(K) =     1.72  PRESS =     0.0
 Etot   =         0.0000  EKtot   =         0.0000  EPtot      =        -8.9715
 BOND   =         0.0000  ANGLE   =         0.0000  DIHED      =         0.0000
 1-4 NB =         0.0000  1-4 EEL =       -28.0532  VDWAALS    =         0.0000
 EELEC  =        19.0817  EHBOND  =         0.0000  RESTRAINT  =         0.0000
 EKCMT  =         0.0000  VIRIAL  =         0.0000  VOLUME     =         0.0000
                                                    Density    =         0.0000
 DV/DL  =        -8.9715
 ------------------------------------------------------------------------------

      A V E R A G E S   O V E R  500000 S T E P S

 NSTEP =   500000   TIME(PS) =    1200.000  TEMP(K) =   300.02  PRESS =    -8.8
 Etot   =    -54087.2706  EKtot   =     12494.3797  EPtot      =    -66581.6503
 BOND   =         0.9275  ANGLE   =         4.8618  DIHED      =         1.1136
 1-4 NB =         0.4872  1-4 EEL =        15.9592  VDWAALS    =      9955.0561
 EELEC  =    -76560.0555  EHBOND  =         0.0000  RESTRAINT  =         0.0000
 EKCMT  =      6264.1751  VIRIAL  =      6306.4275  VOLUME     =    212747.9073
                                                    Density    =         0.9822
 DV/DL  =        -9.0297
 ------------------------------------------------------------------------------

      R M S  F L U C T U A T I O N S

 NSTEP =   500000   TIME(PS) =    1200.000  TEMP(K) =     2.06  PRESS =   142.9
 Etot   =       169.4595  EKtot   =        85.7585  EPtot      =       146.4657
 BOND   =         0.7580  ANGLE   =         1.7142  DIHED      =         0.8004
 1-4 NB =         0.4962  1-4 EEL =         2.6767  VDWAALS    =       128.0118
 EELEC  =       224.2205  EHBOND  =         0.0000  RESTRAINT  =         0.0000
 EKCMT  =        60.9113  VIRIAL  =       662.2289  VOLUME     =      1552.7869
                                                    Density    =         0.0068
 DV/DL  =         2.8469
 ------------------------------------------------------------------------------

      A V E R A G E S   O V E R  500000 S T E P S

 NSTEP =   500000   TIME(PS) =    1200.000  TEMP(K) =   300.02  PRESS =    -8.8
 Etot   =    -54087.2706  EKtot   =     12494.3797  EPtot      =    -66581.6503
 BOND   =         0.9275  ANGLE   =         4.8618  DIHED      =         1.1136
 1-4 NB =         0.4872  1-4 EEL =        15.9592  VDWAALS    =      9955.0561
 EELEC  =    -76560.0555  EHBOND  =         0.0000  RESTRAINT  =         0.0000
 EKCMT  =      6264.1751  VIRIAL  =      6306.4275  VOLUME     =    212747.9073
                                                    Density    =         0.9822
 DV/DL  =        -9.0297
 ------------------------------------------------------------------------------

      R M S  F L U C T U A T I O N S

 NSTEP =   500000   TIME(PS) =    1200.000  TEMP(K) =     2.06  PRESS =   142.9
 Etot   =       169.4595  EKtot   =        85.7585  EPtot      =       146.4657
 BOND   =         0.7580  ANGLE   =         1.7142  DIHED      =         0.8004
 1-4 NB =         0.4962  1-4 EEL =         2.6767  VDWAALS    =       128.0118
 EELEC  =       224.2205  EHBOND  =         0.0000  RESTRAINT  =         0.0000
 EKCMT  =        60.9113  VIRIAL  =       662.2289  VOLUME     =      1552.7869
                                                    Density    =         0.0068
 DV/DL  =         2.8469
 ------------------------------------------------------------------------------

      DV/DL, AVERAGES OVER  500000 STEPS

 NSTEP =   500000   TIME(PS) =    1200.000  TEMP(K) =     2.06  PRESS =     0.0
 Etot   =         0.0000  EKtot   =         0.0000  EPtot      =        -9.0297
 BOND   =         0.0000  ANGLE   =         0.0000  DIHED      =         0.0000
 1-4 NB =         0.0000  1-4 EEL =       -36.4881  VDWAALS    =         0.0000
 EELEC  =        27.4584  EHBOND  =         0.0000  RESTRAINT  =         0.0000
 EKCMT  =         0.0000  VIRIAL  =         0.0000  VOLUME     =         0.0000
                                                    Density    =         0.0000
 DV/DL  =        -9.0297
 ------------------------------------------------------------------------------
