-------------------------------------------------------
          Amber 20 PMEMD                              2020
          -------------------------------------------------------

  [-O]verwriting output

File Assignments:

 Here is the input file:

 &cntrl
   nstlim=500000, nscm=1000,
   ntx=5, irest=1, ntpr=1000,
   tempi=300.0, temp0=300.0, ntt=3, gamma_ln=2.0,
   ntp=1, pres0=1.01325, taup=5.0,
   ntb=2, igb=0, cut=10.0,
   dt=0.002, ig=-1,
   ntc=2, ntf=2,
   iwrap=0,
   ntwr=1000, ntwx=50000, ntave=1000,
   ioutfm=1, ntwv=-1,
   ifsc = 0, icfe=1,
   clambda=0.68392,
   timask1=':1',
   timask2=':2', crgmask = ':2',
/

Note: ig = -1. Setting random seed to   224112 based on wallclock time in
      microseconds.

--------------------------------------------------------------------------------
   1.  RESOURCE   USE:
--------------------------------------------------------------------------------

 getting box info from netcdf restart file
 NATOM  =   20967 NTYPES =       6 NBONH =   20959 MBONA  =       6
 NTHETH =      32 MTHETA =       4 NPHIH =      40 MPHIA  =       2
 NHPARM =       0 NPARM  =       0 NNB   =   28026 NRES   =    6983
 NBONA  =       6 NTHETA =       4 NPHIA =       2 NUMBND =       6
 NUMANG =       6 NPTRA  =       2 NATYP =       6 NPHB   =       1
 IFBOX  =       2 NMXRS  =      12 IFCAP =       0 NEXTRA =       0
 NCOPY  =       0

     BOX TYPE: TRUNCATED OCTAHEDRON

--------------------------------------------------------------------------------
   2.  CONTROL  DATA  FOR  THE  RUN
--------------------------------------------------------------------------------

default_name

General flags:
     imin    =       0, nmropt  =       0

Nature and format of input:
     ntx     =       5, irest   =       1, ntrx    =       1

Nature and format of output:
     ntxo    =       2, ntpr    =    1000, ntrx    =       1, ntwr    =    1000
     iwrap   =       0, ntwx    =   50000, ntwv    =      -1, ntwe    =       0
     ioutfm  =       1, ntwprt  =       0, idecomp =       0, rbornstat=      0

Potential function:
     ntf     =       2, ntb     =       2, igb     =       0, nsnb    =      25
     ipol    =       0, gbsa    =       0, iesp    =       0
     dielc   =   1.00000, cut     =  10.00000, intdiel =   1.00000

Frozen or restrained atoms:
     ibelly  =       0, ntr     =       0

Molecular dynamics:
     nstlim  =    500000, nscm    =      1000, nrespa  =         1
     t       =   0.00000, dt      =   0.00200, vlimit  =  -1.00000

Langevin dynamics temperature regulation:
     ig      =  224112
     temp0   = 300.00000, tempi   = 300.00000, gamma_ln=   2.00000

Pressure regulation:
     ntp     =       1
     pres0   =   1.01325, comp    =  44.60000, taup    =   5.00000

SHAKE:
     ntc     =       2, jfastw  =       0
     tol     =   0.00001

Free energy options:
     icfe    =       1, ifsc    =       0, klambda =       1
     clambda =  0.6839, scalpha =  0.5000, scbeta  = 12.0000
     sceeorder =       2
     dynlmb =  0.0000 logdvdl =       0

Ewald parameters:
     verbose =       0, ew_type =       0, nbflag  =       1, use_pme =       1
     vdwmeth =       1, eedmeth =       1, netfrc  =       1
     Box X =   67.054   Box Y =   67.054   Box Z =   67.054
     Alpha =  109.471   Beta  =  109.471   Gamma =  109.471
     NFFT1 =   64       NFFT2 =   64       NFFT3 =   64
     Cutoff=   10.000   Tol   =0.100E-04
     Ewald Coefficient =  0.27511
     Interpolation order =    4
     TI Mask 1 :1; matches     12 atoms
     TI Mask 2 :2; matches     12 atoms
     TI region 1:   20955 atoms
     TI region 2:   20955 atoms
Removing charge of      -0.6664 from atom      13
Removing charge of      -0.6664 from atom      14
Removing charge of      -0.0664 from atom      15
Removing charge of      -0.0664 from atom      16
Removing charge of       0.2792 from atom      17
Removing charge of       0.2802 from atom      18
Removing charge of       0.2802 from atom      19
Removing charge of       0.2792 from atom      20
Removing charge of       0.0898 from atom      21
Removing charge of       0.0837 from atom      22
Removing charge of       0.0898 from atom      23
Removing charge of       0.0837 from atom      24
Total charge of  -0.00000000 removed from      12 atoms
     Checking for mismatched coordinates.

--------------------------------------------------------------------------------
   3.  ATOMIC COORDINATES AND VELOCITIES
--------------------------------------------------------------------------------

default_name
 begin time read from input coords =   200.000 ps

 Number of triangulated 3-point waters found:     6981

     Sum of charges for TI region  1 =  -0.00000000
     Skip neutralizing charges...

     Sum of charges for TI region  2 =   0.00000000
     Skip neutralizing charges...

--------------------------------------------------------------------------------
   4.  RESULTS
 NSTEP =     1000   TIME(PS) =     202.000  TEMP(K) =   302.92  PRESS =  -648.9
 Etot   =    -52962.8242  EKtot   =     12615.2544  EPtot      =    -65578.0786
 BOND   =         1.7810  ANGLE   =         7.1035  DIHED      =         0.3108
 1-4 NB =         0.3287  1-4 EEL =        12.7682  VDWAALS    =      9616.2327
 EELEC  =    -75216.6035  EHBOND  =         0.0000  RESTRAINT  =         0.0000
 EKCMT  =      6316.3997  VIRIAL  =      9525.2050  VOLUME     =    229033.3250
                                                    Density    =         0.9123
 DV/DL  =       -10.6017
 ------------------------------------------------------------------------------

      A V E R A G E S   O V E R    1000 S T E P S

 NSTEP =     1000   TIME(PS) =     202.000  TEMP(K) =   301.31  PRESS =  -741.2
 Etot   =    -52968.2241  EKtot   =     12548.0920  EPtot      =    -65516.3161
 BOND   =         1.2165  ANGLE   =         6.2457  DIHED      =         1.3407
 1-4 NB =         0.7673  1-4 EEL =        12.9613  VDWAALS    =      9562.6093
 EELEC  =    -75101.4569  EHBOND  =         0.0000  RESTRAINT  =         0.0000
 EKCMT  =      6287.1589  VIRIAL  =      9977.0324  VOLUME     =    230472.7837
                                                    Density    =         0.9066
 DV/DL  =       -10.6771
 ------------------------------------------------------------------------------

      R M S  F L U C T U A T I O N S

 NSTEP =     1000   TIME(PS) =     202.000  TEMP(K) =     1.83  PRESS =   129.7
 Etot   =        85.2390  EKtot   =        76.2060  EPtot      =        79.3419
 BOND   =         1.0197  ANGLE   =         2.0204  DIHED      =         0.9991
 1-4 NB =         0.6550  1-4 EEL =         0.7899  VDWAALS    =       129.1466
 EELEC  =       177.2059  EHBOND  =         0.0000  RESTRAINT  =         0.0000
 EKCMT  =        60.7444  VIRIAL  =       656.6601  VOLUME     =       863.6656
                                                    Density    =         0.0034
 DV/DL  =         2.1783
 ------------------------------------------------------------------------------

      A V E R A G E S   O V E R    1000 S T E P S

 NSTEP =     1000   TIME(PS) =     202.000  TEMP(K) =   301.31  PRESS =  -741.2
 Etot   =    -52968.2241  EKtot   =     12548.0920  EPtot      =    -65516.3161
 BOND   =         1.2165  ANGLE   =         6.2457  DIHED      =         1.3407
 1-4 NB =         0.7673  1-4 EEL =        12.9613  VDWAALS    =      9562.6093
 EELEC  =    -75101.4569  EHBOND  =         0.0000  RESTRAINT  =         0.0000
 EKCMT  =      6287.1589  VIRIAL  =      9977.0324  VOLUME     =    230472.7837
                                                    Density    =         0.9066
 DV/DL  =       -10.6771
 ------------------------------------------------------------------------------

      R M S  F L U C T U A T I O N S

 NSTEP =     1000   TIME(PS) =     202.000  TEMP(K) =     1.83  PRESS =   129.7
 Etot   =        85.2390  EKtot   =        76.2060  EPtot      =        79.3419
 BOND   =         1.0197  ANGLE   =         2.0204  DIHED      =         0.9991
 1-4 NB =         0.6550  1-4 EEL =         0.7899  VDWAALS    =       129.1466
 EELEC  =       177.2059  EHBOND  =         0.0000  RESTRAINT  =         0.0000
 EKCMT  =        60.7444  VIRIAL  =       656.6601  VOLUME     =       863.6656
                                                    Density    =         0.0034
 DV/DL  =         2.1783
 ------------------------------------------------------------------------------

      DV/DL, AVERAGES OVER    1000 STEPS

 NSTEP =     1000   TIME(PS) =     202.000  TEMP(K) =     1.83  PRESS =     0.0
 Etot   =         0.0000  EKtot   =         0.0000  EPtot      =       -10.6771
 BOND   =         0.0000  ANGLE   =         0.0000  DIHED      =         0.0000
 1-4 NB =         0.0000  1-4 EEL =       -41.0064  VDWAALS    =         0.0000
 EELEC  =        30.3294  EHBOND  =         0.0000  RESTRAINT  =         0.0000
 EKCMT  =         0.0000  VIRIAL  =         0.0000  VOLUME     =         0.0000
                                                    Density    =         0.0000
 DV/DL  =       -10.6771
 ------------------------------------------------------------------------------

      A V E R A G E S   O V E R    1000 S T E P S

 NSTEP =     2000   TIME(PS) =     204.000  TEMP(K) =   300.53  PRESS =  -635.8
 Etot   =    -53219.1331  EKtot   =     12515.8639  EPtot      =    -65734.9969
 BOND   =         1.0398  ANGLE   =         5.4413  DIHED      =         0.9352
 1-4 NB =         0.5925  1-4 EEL =        12.8156  VDWAALS    =      9644.2305
 EELEC  =    -75400.0518  EHBOND  =         0.0000  RESTRAINT  =         0.0000
 EKCMT  =      6277.0836  VIRIAL  =      9403.1583  VOLUME     =    227720.6348
                                                    Density    =         0.9176
 DV/DL  =        -9.0825
 ------------------------------------------------------------------------------

      R M S  F L U C T U A T I O N S

 NSTEP =     2000   TIME(PS) =     204.000  TEMP(K) =     1.89  PRESS =    90.9
 Etot   =       139.3558  EKtot   =        78.6741  EPtot      =       113.5824
 BOND   =         0.8631  ANGLE   =         1.6442  DIHED      =         0.5043
 1-4 NB =         0.4300  1-4 EEL =         0.7038  VDWAALS    =        90.8063
 EELEC  =       159.9225  EHBOND  =         0.0000  RESTRAINT  =         0.0000
 EKCMT  =        48.0397  VIRIAL  =       449.8073  VOLUME     =       761.9914
                                                    Density    =         0.0031
 DV/DL  =         2.6278
 ------------------------------------------------------------------------------

      A V E R A G E S   O V E R    1000 S T E P S

 NSTEP =     2000   TIME(PS) =     204.000  TEMP(K) =   300.53  PRESS =  -635.8
 Etot   =    -53219.1331  EKtot   =     12515.8639  EPtot      =    -65734.9969
 BOND   =         1.0398  ANGLE   =         5.4413  DIHED      =         0.9352
 1-4 NB =         0.5925  1-4 EEL =        12.8156  VDWAALS    =      9644.2305
 EELEC  =    -75400.0518  EHBOND  =         0.0000  RESTRAINT  =         0.0000
 EKCMT  =      6277.0836  VIRIAL  =      9403.1583  VOLUME     =    227720.6348
                                                    Density    =         0.9176
 DV/DL  =        -9.0825
 ------------------------------------------------------------------------------

      R M S  F L U C T U A T I O N S

 NSTEP =     2000   TIME(PS) =     204.000  TEMP(K) =     1.89  PRESS =    90.9
 Etot   =       139.3558  EKtot   =        78.6741  EPtot      =       113.5824
 BOND   =         0.8631  ANGLE   =         1.6442  DIHED      =         0.5043
 1-4 NB =         0.4300  1-4 EEL =         0.7038  VDWAALS    =        90.8063
 EELEC  =       159.9225  EHBOND  =         0.0000  RESTRAINT  =         0.0000
 EKCMT  =        48.0397  VIRIAL  =       449.8073  VOLUME     =       761.9914
                                                    Density    =         0.0031
 DV/DL  =         2.6278
 ------------------------------------------------------------------------------

      DV/DL, AVERAGES OVER    1000 STEPS

 NSTEP =     2000   TIME(PS) =     204.000  TEMP(K) =     1.89  PRESS =     0.0
 Etot   =         0.0000  EKtot   =         0.0000  EPtot      =        -9.0825
 BOND   =         0.0000  ANGLE   =         0.0000  DIHED      =         0.0000
 1-4 NB =         0.0000  1-4 EEL =       -40.5454  VDWAALS    =         0.0000
 EELEC  =        31.4629  EHBOND  =         0.0000  RESTRAINT  =         0.0000
 EKCMT  =         0.0000  VIRIAL  =         0.0000  VOLUME     =         0.0000
                                                    Density    =         0.0000
 DV/DL  =        -9.0825
 ------------------------------------------------------------------------------

      A V E R A G E S   O V E R    1000 S T E P S

 NSTEP =   500000   TIME(PS) =    1200.000  TEMP(K) =   299.68  PRESS =   -21.4
 Etot   =    -54108.6424  EKtot   =     12480.2440  EPtot      =    -66588.8864
 BOND   =         1.0547  ANGLE   =         4.8970  DIHED      =         0.7356
 1-4 NB =         0.6243  1-4 EEL =        13.1501  VDWAALS    =      9957.6788
 EELEC  =    -76567.0270  EHBOND  =         0.0000  RESTRAINT  =         0.0000
 EKCMT  =      6272.5077  VIRIAL  =      6370.6777  VOLUME     =    212771.7862
                                                    Density    =         0.9820
 DV/DL  =        -9.8196
 ------------------------------------------------------------------------------

      R M S  F L U C T U A T I O N S

 NSTEP =   500000   TIME(PS) =    1200.000  TEMP(K) =     1.90  PRESS =   142.2
 Etot   =        57.6699  EKtot   =        79.2939  EPtot      =        75.1984
 BOND   =         0.7598  ANGLE   =         1.5186  DIHED      =         0.4614
 1-4 NB =         0.4326  1-4 EEL =         0.5129  VDWAALS    =       137.7845
 EELEC  =       158.4540  EHBOND  =         0.0000  RESTRAINT  =         0.0000
 EKCMT  =        61.2742  VIRIAL  =       649.7449  VOLUME     =        73.4286
                                                    Density    =         0.0003
 DV/DL  =         3.0229
 ------------------------------------------------------------------------------

      A V E R A G E S   O V E R    1000 S T E P S

 NSTEP =   500000   TIME(PS) =    1200.000  TEMP(K) =   299.68  PRESS =   -21.4
 Etot   =    -54108.6424  EKtot   =     12480.2440  EPtot      =    -66588.8864
 BOND   =         1.0547  ANGLE   =         4.8970  DIHED      =         0.7356
 1-4 NB =         0.6243  1-4 EEL =        13.1501  VDWAALS    =      9957.6788
 EELEC  =    -76567.0270  EHBOND  =         0.0000  RESTRAINT  =         0.0000
 EKCMT  =      6272.5077  VIRIAL  =      6370.6777  VOLUME     =    212771.7862
                                                    Density    =         0.9820
 DV/DL  =        -9.8196
 ------------------------------------------------------------------------------

      R M S  F L U C T U A T I O N S

 NSTEP =   500000   TIME(PS) =    1200.000  TEMP(K) =     1.90  PRESS =   142.2
 Etot   =        57.6699  EKtot   =        79.2939  EPtot      =        75.1984
 BOND   =         0.7598  ANGLE   =         1.5186  DIHED      =         0.4614
 1-4 NB =         0.4326  1-4 EEL =         0.5129  VDWAALS    =       137.7845
 EELEC  =       158.4540  EHBOND  =         0.0000  RESTRAINT  =         0.0000
 EKCMT  =        61.2742  VIRIAL  =       649.7449  VOLUME     =        73.4286
                                                    Density    =         0.0003
 DV/DL  =         3.0229
 ------------------------------------------------------------------------------

      DV/DL, AVERAGES OVER    1000 STEPS

 NSTEP =   500000   TIME(PS) =    1200.000  TEMP(K) =     1.90  PRESS =     0.0
 Etot   =         0.0000  EKtot   =         0.0000  EPtot      =        -9.8196
 BOND   =         0.0000  ANGLE   =         0.0000  DIHED      =         0.0000
 1-4 NB =         0.0000  1-4 EEL =       -41.6037  VDWAALS    =         0.0000
 EELEC  =        31.7841  EHBOND  =         0.0000  RESTRAINT  =         0.0000
 EKCMT  =         0.0000  VIRIAL  =         0.0000  VOLUME     =         0.0000
                                                    Density    =         0.0000
 DV/DL  =        -9.8196
 ------------------------------------------------------------------------------

      A V E R A G E S   O V E R  500000 S T E P S

 NSTEP =   500000   TIME(PS) =    1200.000  TEMP(K) =   299.93  PRESS =    -8.8
 Etot   =    -54096.2337  EKtot   =     12490.7276  EPtot      =    -66586.9612
 BOND   =         0.9381  ANGLE   =         4.8767  DIHED      =         1.0786
 1-4 NB =         0.4471  1-4 EEL =        10.9215  VDWAALS    =      9957.9398
 EELEC  =    -76563.1630  EHBOND  =         0.0000  RESTRAINT  =         0.0000
 EKCMT  =      6262.8756  VIRIAL  =      6305.1175  VOLUME     =    212757.6782
                                                    Density    =         0.9821
 DV/DL  =       -10.2823
 ------------------------------------------------------------------------------

      R M S  F L U C T U A T I O N S

 NSTEP =   500000   TIME(PS) =    1200.000  TEMP(K) =     2.07  PRESS =   143.8
 Etot   =       174.0839  EKtot   =        86.2487  EPtot      =       148.5177
 BOND   =         0.7618  ANGLE   =         1.7388  DIHED      =         0.7572
 1-4 NB =         0.5127  1-4 EEL =         2.0407  VDWAALS    =       128.3304
 EELEC  =       226.4554  EHBOND  =         0.0000  RESTRAINT  =         0.0000
 EKCMT  =        61.1679  VIRIAL  =       667.0166  VOLUME     =      1483.9352
                                                    Density    =         0.0065
 DV/DL  =         2.5591
 ------------------------------------------------------------------------------

      A V E R A G E S   O V E R  500000 S T E P S

 NSTEP =   500000   TIME(PS) =    1200.000  TEMP(K) =   299.93  PRESS =    -8.8
 Etot   =    -54096.2337  EKtot   =     12490.7276  EPtot      =    -66586.9612
 BOND   =         0.9381  ANGLE   =         4.8767  DIHED      =         1.0786
 1-4 NB =         0.4471  1-4 EEL =        10.9215  VDWAALS    =      9957.9398
 EELEC  =    -76563.1630  EHBOND  =         0.0000  RESTRAINT  =         0.0000
 EKCMT  =      6262.8756  VIRIAL  =      6305.1175  VOLUME     =    212757.6782
                                                    Density    =         0.9821
 DV/DL  =       -10.2823
 ------------------------------------------------------------------------------

      R M S  F L U C T U A T I O N S

 NSTEP =   500000   TIME(PS) =    1200.000  TEMP(K) =     2.07  PRESS =   143.8
 Etot   =       174.0839  EKtot   =        86.2487  EPtot      =       148.5177
 BOND   =         0.7618  ANGLE   =         1.7388  DIHED      =         0.7572
 1-4 NB =         0.5127  1-4 EEL =         2.0407  VDWAALS    =       128.3304
 EELEC  =       226.4554  EHBOND  =         0.0000  RESTRAINT  =         0.0000
 EKCMT  =        61.1679  VIRIAL  =       667.0166  VOLUME     =      1483.9352
                                                    Density    =         0.0065
 DV/DL  =         2.5591
 ------------------------------------------------------------------------------

      DV/DL, AVERAGES OVER  500000 STEPS

 NSTEP =   500000   TIME(PS) =    1200.000  TEMP(K) =     2.07  PRESS =     0.0
 Etot   =         0.0000  EKtot   =         0.0000  EPtot      =       -10.2823
 BOND   =         0.0000  ANGLE   =         0.0000  DIHED      =         0.0000
 1-4 NB =         0.0000  1-4 EEL =       -34.5530  VDWAALS    =         0.0000
 EELEC  =        24.2707  EHBOND  =         0.0000  RESTRAINT  =         0.0000
 EKCMT  =         0.0000  VIRIAL  =         0.0000  VOLUME     =         0.0000
                                                    Density    =         0.0000
 DV/DL  =       -10.2823
 ------------------------------------------------------------------------------
