-------------------------------------------------------
          Amber 20 PMEMD                              2020
          -------------------------------------------------------

  [-O]verwriting output

File Assignments:

 Here is the input file:

 &cntrl
   nstlim=1000000, nscm=1000,
   ntx=1, irest=0, ntpr=1000,
   tempi=300.0, temp0=300.0, ntt=3, gamma_ln=2.0,
   ntb=1, igb=0, cut=10.0,
   dt=0.001, ig=-1,
   ntc=1, ntf=1,
   iwrap=0,
   ntwr=1000, ntwx=50000, ntave=1000,
   ioutfm=1, ntwv=-1,
   ifsc = 0, icfe=1,
   clambda=0.31608,
   timask1=':1',
   timask2=':2', crgmask = ':2',
/

Note: ig = -1. Setting random seed to   388568 based on wallclock time in
      microseconds.

--------------------------------------------------------------------------------
   1.  RESOURCE   USE:
--------------------------------------------------------------------------------

 getting box info from netcdf restart file
 NATOM  =      24 NTYPES =       6 NBONH =      16 MBONA  =       6
 NTHETH =      32 MTHETA =       4 NPHIH =      40 MPHIA  =       2
 NHPARM =       0 NPARM  =       0 NNB   =     102 NRES   =       2
 NBONA  =       6 NTHETA =       4 NPHIA =       2 NUMBND =       4
 NUMANG =       6 NPTRA  =       2 NATYP =       6 NPHB   =       1
 IFBOX  =       2 NMXRS  =      12 IFCAP =       0 NEXTRA =       0
 NCOPY  =       0

     BOX TYPE: TRUNCATED OCTAHEDRON

--------------------------------------------------------------------------------
   2.  CONTROL  DATA  FOR  THE  RUN
--------------------------------------------------------------------------------

default_name

General flags:
     imin    =       0, nmropt  =       0

Nature and format of input:
     ntx     =       1, irest   =       0, ntrx    =       1

Nature and format of output:
     ntxo    =       2, ntpr    =    1000, ntrx    =       1, ntwr    =    1000
     iwrap   =       0, ntwx    =   50000, ntwv    =      -1, ntwe    =       0
     ioutfm  =       1, ntwprt  =       0, idecomp =       0, rbornstat=      0

Potential function:
     ntf     =       1, ntb     =       1, igb     =       0, nsnb    =      25
     ipol    =       0, gbsa    =       0, iesp    =       0
     dielc   =   1.00000, cut     =  10.00000, intdiel =   1.00000

Frozen or restrained atoms:
     ibelly  =       0, ntr     =       0

Molecular dynamics:
     nstlim  =   1000000, nscm    =      1000, nrespa  =         1
     t       =   0.00000, dt      =   0.00100, vlimit  =  -1.00000

Langevin dynamics temperature regulation:
     ig      =  388568
     temp0   = 300.00000, tempi   = 300.00000, gamma_ln=   2.00000

Free energy options:
     icfe    =       1, ifsc    =       0, klambda =       1
     clambda =  0.3161, scalpha =  0.5000, scbeta  = 12.0000
     sceeorder =       2
     dynlmb =  0.0000 logdvdl =       0

Ewald parameters:
     verbose =       0, ew_type =       0, nbflag  =       1, use_pme =       1
     vdwmeth =       1, eedmeth =       1, netfrc  =       1
     Box X =   67.054   Box Y =   67.054   Box Z =   67.054
     Alpha =  109.471   Beta  =  109.471   Gamma =  109.471
     NFFT1 =   64       NFFT2 =   64       NFFT3 =   64
     Cutoff=   10.000   Tol   =0.100E-04
     Ewald Coefficient =  0.27511
     Interpolation order =    4
     TI Mask 1 :1; matches     12 atoms
     TI Mask 2 :2; matches     12 atoms
     TI region 1:      12 atoms
     TI region 2:      12 atoms
Removing charge of      -0.6664 from atom      13
Removing charge of      -0.6664 from atom      14
Removing charge of      -0.0664 from atom      15
Removing charge of      -0.0664 from atom      16
Removing charge of       0.2792 from atom      17
Removing charge of       0.2802 from atom      18
Removing charge of       0.2802 from atom      19
Removing charge of       0.2792 from atom      20
Removing charge of       0.0898 from atom      21
Removing charge of       0.0837 from atom      22
Removing charge of       0.0898 from atom      23
Removing charge of       0.0837 from atom      24
Total charge of  -0.00000000 removed from      12 atoms
     Checking for mismatched coordinates.

--------------------------------------------------------------------------------
   3.  ATOMIC COORDINATES AND VELOCITIES
--------------------------------------------------------------------------------

default_name
 begin time read from input coords =     0.000 ps

 Number of triangulated 3-point waters found:        0

     Sum of charges for TI region  1 =  -0.00000000
     Skip neutralizing charges...

     Sum of charges for TI region  2 =   0.00000000
     Skip neutralizing charges...

--------------------------------------------------------------------------------
   4.  RESULTS
 NSTEP =        0   TIME(PS) =       0.000  TEMP(K) =   265.75  PRESS =     0.0
 Etot   =        18.4897  EKtot   =         9.5057  EPtot      =         8.9840
 BOND   =         0.0224  ANGLE   =         0.0723  DIHED      =         0.0764
 1-4 NB =         0.2639  1-4 EEL =        26.2646  VDWAALS    =        -0.1357
 EELEC  =       -17.5800  EHBOND  =         0.0000  RESTRAINT  =         0.0000
 DV/DL  =       -12.6983
 ------------------------------------------------------------------------------

      A V E R A G E S   O V E R    1000 S T E P S

 NSTEP =     1000   TIME(PS) =       1.000  TEMP(K) =   252.73  PRESS =     0.0
 Etot   =        26.2232  EKtot   =         9.0402  EPtot      =        17.1830
 BOND   =         3.5466  ANGLE   =         3.8286  DIHED      =         0.9231
 1-4 NB =         0.3511  1-4 EEL =        26.1886  VDWAALS    =        -0.1318
 EELEC  =       -17.5231  EHBOND  =         0.0000  RESTRAINT  =         0.0000
 DV/DL  =       -12.6732
 ------------------------------------------------------------------------------

      R M S  F L U C T U A T I O N S

 NSTEP =     1000   TIME(PS) =       1.000  TEMP(K) =    53.18  PRESS =     0.0
 Etot   =         3.1379  EKtot   =         1.9023  EPtot      =         2.3705
 BOND   =         1.5163  ANGLE   =         1.1815  DIHED      =         0.6484
 1-4 NB =         0.2503  1-4 EEL =         1.3209  VDWAALS    =         0.0203
 EELEC  =         1.3561  EHBOND  =         0.0000  RESTRAINT  =         0.0000
 DV/DL  =         0.3376
 ------------------------------------------------------------------------------

      A V E R A G E S   O V E R    1000 S T E P S

 NSTEP =     1000   TIME(PS) =       1.000  TEMP(K) =   252.76  PRESS =     0.0
 Etot   =        26.2242  EKtot   =         9.0412  EPtot      =        17.1830
 BOND   =         3.5466  ANGLE   =         3.8286  DIHED      =         0.9231
 1-4 NB =         0.3511  1-4 EEL =        26.1886  VDWAALS    =        -0.1318
 EELEC  =       -17.5231  EHBOND  =         0.0000  RESTRAINT  =         0.0000
 DV/DL  =       -12.6732
 ------------------------------------------------------------------------------

      R M S  F L U C T U A T I O N S

 NSTEP =     1000   TIME(PS) =       1.000  TEMP(K) =    53.25  PRESS =     0.0
 Etot   =         3.1443  EKtot   =         1.9048  EPtot      =         2.3705
 BOND   =         1.5163  ANGLE   =         1.1815  DIHED      =         0.6484
 1-4 NB =         0.2503  1-4 EEL =         1.3209  VDWAALS    =         0.0203
 EELEC  =         1.3561  EHBOND  =         0.0000  RESTRAINT  =         0.0000
 DV/DL  =         0.3376
 ------------------------------------------------------------------------------

      DV/DL, AVERAGES OVER    1000 STEPS

 NSTEP =     1000   TIME(PS) =       1.000  TEMP(K) =    53.25  PRESS =     0.0
 Etot   =         0.0000  EKtot   =         0.0000  EPtot      =       -12.6732
 BOND   =        -0.0010  ANGLE   =        -0.0020  DIHED      =         0.0002
 1-4 NB =        -0.0001  1-4 EEL =       -38.2918  VDWAALS    =         0.0000
 EELEC  =        25.6216  EHBOND  =         0.0000  RESTRAINT  =         0.0000
 DV/DL  =       -12.6732
 ------------------------------------------------------------------------------

      A V E R A G E S   O V E R    1000 S T E P S

 NSTEP =     2000   TIME(PS) =       2.000  TEMP(K) =   321.42  PRESS =     0.0
 Etot   =        31.1930  EKtot   =        11.4970  EPtot      =        19.6960
 BOND   =         3.3103  ANGLE   =         5.9915  DIHED      =         1.3515
 1-4 NB =         0.5345  1-4 EEL =        26.4556  VDWAALS    =        -0.1338
 EELEC  =       -17.8135  EHBOND  =         0.0000  RESTRAINT  =         0.0000
 DV/DL  =       -12.6405
 ------------------------------------------------------------------------------

      R M S  F L U C T U A T I O N S

 NSTEP =     2000   TIME(PS) =       2.000  TEMP(K) =    67.47  PRESS =     0.0
 Etot   =         2.5334  EKtot   =         2.4132  EPtot      =         2.1566
 BOND   =         1.2953  ANGLE   =         2.0988  DIHED      =         0.7537
 1-4 NB =         0.5072  1-4 EEL =         1.7510  VDWAALS    =         0.0265
 EELEC  =         1.7765  EHBOND  =         0.0000  RESTRAINT  =         0.0000
 DV/DL  =         0.4305
 ------------------------------------------------------------------------------

      A V E R A G E S   O V E R    1000 S T E P S

 NSTEP =     2000   TIME(PS) =       2.000  TEMP(K) =   321.26  PRESS =     0.0
 Etot   =        31.1874  EKtot   =        11.4914  EPtot      =        19.6960
 BOND   =         3.3103  ANGLE   =         5.9915  DIHED      =         1.3515
 1-4 NB =         0.5345  1-4 EEL =        26.4556  VDWAALS    =        -0.1338
 EELEC  =       -17.8135  EHBOND  =         0.0000  RESTRAINT  =         0.0000
 DV/DL  =       -12.6405
 ------------------------------------------------------------------------------

      R M S  F L U C T U A T I O N S

 NSTEP =     2000   TIME(PS) =       2.000  TEMP(K) =    67.38  PRESS =     0.0
 Etot   =         2.5336  EKtot   =         2.4102  EPtot      =         2.1566
 BOND   =         1.2953  ANGLE   =         2.0988  DIHED      =         0.7537
 1-4 NB =         0.5072  1-4 EEL =         1.7510  VDWAALS    =         0.0265
 EELEC  =         1.7765  EHBOND  =         0.0000  RESTRAINT  =         0.0000
 DV/DL  =         0.4305
 ------------------------------------------------------------------------------

      DV/DL, AVERAGES OVER    1000 STEPS

 NSTEP =     2000   TIME(PS) =       2.000  TEMP(K) =    67.38  PRESS =     0.0
 Etot   =         0.0000  EKtot   =         0.0000  EPtot      =       -12.6405
 BOND   =        -0.0031  ANGLE   =        -0.0014  DIHED      =        -0.0001
 1-4 NB =         0.0001  1-4 EEL =       -38.6822  VDWAALS    =         0.0000
 EELEC  =        26.0462  EHBOND  =         0.0000  RESTRAINT  =         0.0000
 DV/DL  =       -12.6405
 ------------------------------------------------------------------------------

      A V E R A G E S   O V E R    1000 S T E P S

 NSTEP =  1000000   TIME(PS) =    1000.000  TEMP(K) =   377.62  PRESS =     0.0
 Etot   =        34.5742  EKtot   =        13.5074  EPtot      =        21.0668
 BOND   =         4.7667  ANGLE   =         5.5730  DIHED      =         1.4297
 1-4 NB =         0.3554  1-4 EEL =        20.1778  VDWAALS    =        -0.0396
 EELEC  =       -11.1962  EHBOND  =         0.0000  RESTRAINT  =         0.0000
 DV/DL  =       -13.1344
 ------------------------------------------------------------------------------

      R M S  F L U C T U A T I O N S

 NSTEP =  1000000   TIME(PS) =    1000.000  TEMP(K) =    78.99  PRESS =     0.0
 Etot   =         1.9305  EKtot   =         2.8256  EPtot      =         2.5150
 BOND   =         1.9889  ANGLE   =         1.7380  DIHED      =         0.8381
 1-4 NB =         0.3902  1-4 EEL =         0.6638  VDWAALS    =         0.0058
 EELEC  =         0.6009  EHBOND  =         0.0000  RESTRAINT  =         0.0000
 DV/DL  =         0.4326
 ------------------------------------------------------------------------------

      A V E R A G E S   O V E R    1000 S T E P S

 NSTEP =  1000000   TIME(PS) =    1000.000  TEMP(K) =   377.58  PRESS =     0.0
 Etot   =        34.5726  EKtot   =        13.5058  EPtot      =        21.0668
 BOND   =         4.7667  ANGLE   =         5.5730  DIHED      =         1.4297
 1-4 NB =         0.3554  1-4 EEL =        20.1778  VDWAALS    =        -0.0396
 EELEC  =       -11.1962  EHBOND  =         0.0000  RESTRAINT  =         0.0000
 DV/DL  =       -13.1344
 ------------------------------------------------------------------------------

      R M S  F L U C T U A T I O N S

 NSTEP =  1000000   TIME(PS) =    1000.000  TEMP(K) =    79.06  PRESS =     0.0
 Etot   =         1.9364  EKtot   =         2.8278  EPtot      =         2.5150
 BOND   =         1.9889  ANGLE   =         1.7380  DIHED      =         0.8381
 1-4 NB =         0.3902  1-4 EEL =         0.6638  VDWAALS    =         0.0058
 EELEC  =         0.6009  EHBOND  =         0.0000  RESTRAINT  =         0.0000
 DV/DL  =         0.4326
 ------------------------------------------------------------------------------

      DV/DL, AVERAGES OVER    1000 STEPS

 NSTEP =  1000000   TIME(PS) =    1000.000  TEMP(K) =    79.06  PRESS =     0.0
 Etot   =         0.0000  EKtot   =         0.0000  EPtot      =       -13.1344
 BOND   =        -0.0015  ANGLE   =        -0.0006  DIHED      =         0.0000
 1-4 NB =         0.0002  1-4 EEL =       -29.5031  VDWAALS    =         0.0000
 EELEC  =        16.3706  EHBOND  =         0.0000  RESTRAINT  =         0.0000
 DV/DL  =       -13.1344
 ------------------------------------------------------------------------------

      A V E R A G E S   O V E R 1000000 S T E P S

 NSTEP =  1000000   TIME(PS) =    1000.000  TEMP(K) =   319.16  PRESS =     0.0
 Etot   =        30.5586  EKtot   =        11.4162  EPtot      =        19.1424
 BOND   =         3.9619  ANGLE   =         4.9530  DIHED      =         1.1540
 1-4 NB =         0.4220  1-4 EEL =        25.6175  VDWAALS    =        -0.1046
 EELEC  =       -16.8613  EHBOND  =         0.0000  RESTRAINT  =         0.0000
 DV/DL  =       -12.8030
 ------------------------------------------------------------------------------

      R M S  F L U C T U A T I O N S

 NSTEP =  1000000   TIME(PS) =    1000.000  TEMP(K) =    76.08  PRESS =     0.0
 Etot   =         3.8275  EKtot   =         2.7215  EPtot      =         2.6456
 BOND   =         1.6866  ANGLE   =         1.7740  DIHED      =         0.8162
 1-4 NB =         0.3855  1-4 EEL =         3.1946  VDWAALS    =         0.0381
 EELEC  =         3.3677  EHBOND  =         0.0000  RESTRAINT  =         0.0000
 DV/DL  =         0.6390
 ------------------------------------------------------------------------------

      A V E R A G E S   O V E R 1000000 S T E P S

 NSTEP =  1000000   TIME(PS) =    1000.000  TEMP(K) =   319.16  PRESS =     0.0
 Etot   =        30.5585  EKtot   =        11.4161  EPtot      =        19.1424
 BOND   =         3.9619  ANGLE   =         4.9530  DIHED      =         1.1540
 1-4 NB =         0.4220  1-4 EEL =        25.6175  VDWAALS    =        -0.1046
 EELEC  =       -16.8613  EHBOND  =         0.0000  RESTRAINT  =         0.0000
 DV/DL  =       -12.8030
 ------------------------------------------------------------------------------

      R M S  F L U C T U A T I O N S

 NSTEP =  1000000   TIME(PS) =    1000.000  TEMP(K) =    76.09  PRESS =     0.0
 Etot   =         3.8274  EKtot   =         2.7216  EPtot      =         2.6456
 BOND   =         1.6866  ANGLE   =         1.7740  DIHED      =         0.8162
 1-4 NB =         0.3855  1-4 EEL =         3.1946  VDWAALS    =         0.0381
 EELEC  =         3.3677  EHBOND  =         0.0000  RESTRAINT  =         0.0000
 DV/DL  =         0.6390
 ------------------------------------------------------------------------------

      DV/DL, AVERAGES OVER 1000000 STEPS

 NSTEP =  1000000   TIME(PS) =    1000.000  TEMP(K) =    76.09  PRESS =     0.0
 Etot   =         0.0000  EKtot   =         0.0000  EPtot      =       -12.8030
 BOND   =        -0.0000  ANGLE   =        -0.0001  DIHED      =        -0.0000
 1-4 NB =         0.0000  1-4 EEL =       -37.4568  VDWAALS    =         0.0000
 EELEC  =        24.6540  EHBOND  =         0.0000  RESTRAINT  =         0.0000
 DV/DL  =       -12.8030
 ------------------------------------------------------------------------------
