-------------------------------------------------------
          Amber 20 PMEMD                              2020
          -------------------------------------------------------

  [-O]verwriting output

File Assignments:

 Here is the input file:

 &cntrl
   nstlim=500000, nscm=1000,
   ntx=5, irest=1, ntpr=1000,
   tempi=300.0, temp0=300.0, ntt=3, gamma_ln=2.0,
   ntp=1, pres0=1.01325, taup=5.0,
   ntb=2, igb=0, cut=10.0,
   dt=0.002, ig=-1,
   ntc=2, ntf=2,
   iwrap=0,
   ntwr=1000, ntwx=50000, ntave=1000,
   ioutfm=1, ntwv=-1,
   ifsc = 0, icfe=1,
   clambda=0.88495,
   timask1=':1',
   timask2=':2', crgmask = ':2',
/

Note: ig = -1. Setting random seed to   318160 based on wallclock time in
      microseconds.

--------------------------------------------------------------------------------
   1.  RESOURCE   USE:
--------------------------------------------------------------------------------

 getting box info from netcdf restart file
 NATOM  =   20967 NTYPES =       6 NBONH =   20959 MBONA  =       6
 NTHETH =      32 MTHETA =       4 NPHIH =      40 MPHIA  =       2
 NHPARM =       0 NPARM  =       0 NNB   =   28026 NRES   =    6983
 NBONA  =       6 NTHETA =       4 NPHIA =       2 NUMBND =       6
 NUMANG =       6 NPTRA  =       2 NATYP =       6 NPHB   =       1
 IFBOX  =       2 NMXRS  =      12 IFCAP =       0 NEXTRA =       0
 NCOPY  =       0

     BOX TYPE: TRUNCATED OCTAHEDRON

--------------------------------------------------------------------------------
   2.  CONTROL  DATA  FOR  THE  RUN
--------------------------------------------------------------------------------

default_name

General flags:
     imin    =       0, nmropt  =       0

Nature and format of input:
     ntx     =       5, irest   =       1, ntrx    =       1

Nature and format of output:
     ntxo    =       2, ntpr    =    1000, ntrx    =       1, ntwr    =    1000
     iwrap   =       0, ntwx    =   50000, ntwv    =      -1, ntwe    =       0
     ioutfm  =       1, ntwprt  =       0, idecomp =       0, rbornstat=      0

Potential function:
     ntf     =       2, ntb     =       2, igb     =       0, nsnb    =      25
     ipol    =       0, gbsa    =       0, iesp    =       0
     dielc   =   1.00000, cut     =  10.00000, intdiel =   1.00000

Frozen or restrained atoms:
     ibelly  =       0, ntr     =       0

Molecular dynamics:
     nstlim  =    500000, nscm    =      1000, nrespa  =         1
     t       =   0.00000, dt      =   0.00200, vlimit  =  -1.00000

Langevin dynamics temperature regulation:
     ig      =  318160
     temp0   = 300.00000, tempi   = 300.00000, gamma_ln=   2.00000

Pressure regulation:
     ntp     =       1
     pres0   =   1.01325, comp    =  44.60000, taup    =   5.00000

SHAKE:
     ntc     =       2, jfastw  =       0
     tol     =   0.00001

Free energy options:
     icfe    =       1, ifsc    =       0, klambda =       1
     clambda =  0.8850, scalpha =  0.5000, scbeta  = 12.0000
     sceeorder =       2
     dynlmb =  0.0000 logdvdl =       0

Ewald parameters:
     verbose =       0, ew_type =       0, nbflag  =       1, use_pme =       1
     vdwmeth =       1, eedmeth =       1, netfrc  =       1
     Box X =   67.054   Box Y =   67.054   Box Z =   67.054
     Alpha =  109.471   Beta  =  109.471   Gamma =  109.471
     NFFT1 =   64       NFFT2 =   64       NFFT3 =   64
     Cutoff=   10.000   Tol   =0.100E-04
     Ewald Coefficient =  0.27511
     Interpolation order =    4
     TI Mask 1 :1; matches     12 atoms
     TI Mask 2 :2; matches     12 atoms
     TI region 1:   20955 atoms
     TI region 2:   20955 atoms
Removing charge of      -0.6664 from atom      13
Removing charge of      -0.6664 from atom      14
Removing charge of      -0.0664 from atom      15
Removing charge of      -0.0664 from atom      16
Removing charge of       0.2792 from atom      17
Removing charge of       0.2802 from atom      18
Removing charge of       0.2802 from atom      19
Removing charge of       0.2792 from atom      20
Removing charge of       0.0898 from atom      21
Removing charge of       0.0837 from atom      22
Removing charge of       0.0898 from atom      23
Removing charge of       0.0837 from atom      24
Total charge of  -0.00000000 removed from      12 atoms
     Checking for mismatched coordinates.

--------------------------------------------------------------------------------
   3.  ATOMIC COORDINATES AND VELOCITIES
--------------------------------------------------------------------------------

default_name
 begin time read from input coords =   200.000 ps

 Number of triangulated 3-point waters found:     6981

     Sum of charges for TI region  1 =  -0.00000000
     Skip neutralizing charges...

     Sum of charges for TI region  2 =   0.00000000
     Skip neutralizing charges...

--------------------------------------------------------------------------------
   4.  RESULTS
 NSTEP =     1000   TIME(PS) =     202.000  TEMP(K) =   300.36  PRESS =  -849.7
 Etot   =    -53102.7159  EKtot   =     12508.8461  EPtot      =    -65611.5621
 BOND   =         1.1538  ANGLE   =         3.6771  DIHED      =         0.3902
 1-4 NB =         1.3934  1-4 EEL =         4.9012  VDWAALS    =      9556.8814
 EELEC  =    -75179.9592  EHBOND  =         0.0000  RESTRAINT  =         0.0000
 EKCMT  =      6263.1519  VIRIAL  =     10457.8603  VOLUME     =    228644.6841
                                                    Density    =         0.9139
 DV/DL  =       -14.3499
 ------------------------------------------------------------------------------

      A V E R A G E S   O V E R    1000 S T E P S

 NSTEP =     1000   TIME(PS) =     202.000  TEMP(K) =   299.73  PRESS =  -836.6
 Etot   =    -52959.1123  EKtot   =     12482.2891  EPtot      =    -65441.4014
 BOND   =         1.2325  ANGLE   =         4.7133  DIHED      =         1.3657
 1-4 NB =         0.8085  1-4 EEL =         4.5578  VDWAALS    =      9577.8063
 EELEC  =    -75031.8856  EHBOND  =         0.0000  RESTRAINT  =         0.0000
 EKCMT  =      6261.6659  VIRIAL  =     10422.8895  VOLUME     =    230333.5961
                                                    Density    =         0.9072
 DV/DL  =       -11.5874
 ------------------------------------------------------------------------------

      R M S  F L U C T U A T I O N S

 NSTEP =     1000   TIME(PS) =     202.000  TEMP(K) =     1.75  PRESS =    93.6
 Etot   =       146.9147  EKtot   =        72.6967  EPtot      =       132.3176
 BOND   =         0.9886  ANGLE   =         1.7910  DIHED      =         0.9534
 1-4 NB =         0.6881  1-4 EEL =         0.3686  VDWAALS    =        92.3728
 EELEC  =       178.0369  EHBOND  =         0.0000  RESTRAINT  =         0.0000
 EKCMT  =        48.8083  VIRIAL  =       478.4420  VOLUME     =       997.0590
                                                    Density    =         0.0039
 DV/DL  =         1.9730
 ------------------------------------------------------------------------------

      A V E R A G E S   O V E R    1000 S T E P S

 NSTEP =     1000   TIME(PS) =     202.000  TEMP(K) =   299.73  PRESS =  -836.6
 Etot   =    -52959.1123  EKtot   =     12482.2891  EPtot      =    -65441.4014
 BOND   =         1.2325  ANGLE   =         4.7133  DIHED      =         1.3657
 1-4 NB =         0.8085  1-4 EEL =         4.5578  VDWAALS    =      9577.8063
 EELEC  =    -75031.8856  EHBOND  =         0.0000  RESTRAINT  =         0.0000
 EKCMT  =      6261.6659  VIRIAL  =     10422.8895  VOLUME     =    230333.5961
                                                    Density    =         0.9072
 DV/DL  =       -11.5874
 ------------------------------------------------------------------------------

      R M S  F L U C T U A T I O N S

 NSTEP =     1000   TIME(PS) =     202.000  TEMP(K) =     1.75  PRESS =    93.6
 Etot   =       146.9147  EKtot   =        72.6967  EPtot      =       132.3176
 BOND   =         0.9886  ANGLE   =         1.7910  DIHED      =         0.9534
 1-4 NB =         0.6881  1-4 EEL =         0.3686  VDWAALS    =        92.3728
 EELEC  =       178.0369  EHBOND  =         0.0000  RESTRAINT  =         0.0000
 EKCMT  =        48.8083  VIRIAL  =       478.4420  VOLUME     =       997.0590
                                                    Density    =         0.0039
 DV/DL  =         1.9730
 ------------------------------------------------------------------------------

      DV/DL, AVERAGES OVER    1000 STEPS

 NSTEP =     1000   TIME(PS) =     202.000  TEMP(K) =     1.75  PRESS =     0.0
 Etot   =         0.0000  EKtot   =         0.0000  EPtot      =       -11.5874
 BOND   =         0.0000  ANGLE   =         0.0000  DIHED      =         0.0000
 1-4 NB =         0.0000  1-4 EEL =       -39.6155  VDWAALS    =         0.0000
 EELEC  =        28.0281  EHBOND  =         0.0000  RESTRAINT  =         0.0000
 EKCMT  =         0.0000  VIRIAL  =         0.0000  VOLUME     =         0.0000
                                                    Density    =         0.0000
 DV/DL  =       -11.5874
 ------------------------------------------------------------------------------

      A V E R A G E S   O V E R    1000 S T E P S

 NSTEP =     2000   TIME(PS) =     204.000  TEMP(K) =   299.62  PRESS =  -729.9
 Etot   =    -53229.6942  EKtot   =     12478.0489  EPtot      =    -65707.7432
 BOND   =         1.1474  ANGLE   =         5.1603  DIHED      =         0.8336
 1-4 NB =         0.7242  1-4 EEL =         4.5908  VDWAALS    =      9638.0461
 EELEC  =    -75358.2455  EHBOND  =         0.0000  RESTRAINT  =         0.0000
 EKCMT  =      6236.2560  VIRIAL  =      9815.9758  VOLUME     =    227170.5662
                                                    Density    =         0.9198
 DV/DL  =       -12.7126
 ------------------------------------------------------------------------------

      R M S  F L U C T U A T I O N S

 NSTEP =     2000   TIME(PS) =     204.000  TEMP(K) =     2.03  PRESS =   113.4
 Etot   =       110.6985  EKtot   =        84.5263  EPtot      =        85.2964
 BOND   =         0.9911  ANGLE   =         1.7714  DIHED      =         0.5011
 1-4 NB =         0.5537  1-4 EEL =         0.2645  VDWAALS    =       117.7722
 EELEC  =       137.1805  EHBOND  =         0.0000  RESTRAINT  =         0.0000
 EKCMT  =        58.4085  VIRIAL  =       554.5120  VOLUME     =       856.9872
                                                    Density    =         0.0035
 DV/DL  =         1.8566
 ------------------------------------------------------------------------------

      A V E R A G E S   O V E R    1000 S T E P S

 NSTEP =     2000   TIME(PS) =     204.000  TEMP(K) =   299.62  PRESS =  -729.9
 Etot   =    -53229.6942  EKtot   =     12478.0489  EPtot      =    -65707.7432
 BOND   =         1.1474  ANGLE   =         5.1603  DIHED      =         0.8336
 1-4 NB =         0.7242  1-4 EEL =         4.5908  VDWAALS    =      9638.0461
 EELEC  =    -75358.2455  EHBOND  =         0.0000  RESTRAINT  =         0.0000
 EKCMT  =      6236.2560  VIRIAL  =      9815.9758  VOLUME     =    227170.5662
                                                    Density    =         0.9198
 DV/DL  =       -12.7126
 ------------------------------------------------------------------------------

      R M S  F L U C T U A T I O N S

 NSTEP =     2000   TIME(PS) =     204.000  TEMP(K) =     2.03  PRESS =   113.4
 Etot   =       110.6985  EKtot   =        84.5263  EPtot      =        85.2964
 BOND   =         0.9911  ANGLE   =         1.7714  DIHED      =         0.5011
 1-4 NB =         0.5537  1-4 EEL =         0.2645  VDWAALS    =       117.7722
 EELEC  =       137.1805  EHBOND  =         0.0000  RESTRAINT  =         0.0000
 EKCMT  =        58.4085  VIRIAL  =       554.5120  VOLUME     =       856.9872
                                                    Density    =         0.0035
 DV/DL  =         1.8566
 ------------------------------------------------------------------------------

      DV/DL, AVERAGES OVER    1000 STEPS

 NSTEP =     2000   TIME(PS) =     204.000  TEMP(K) =     2.03  PRESS =     0.0
 Etot   =         0.0000  EKtot   =         0.0000  EPtot      =       -12.7126
 BOND   =         0.0000  ANGLE   =         0.0000  DIHED      =         0.0000
 1-4 NB =         0.0000  1-4 EEL =       -39.9026  VDWAALS    =         0.0000
 EELEC  =        27.1899  EHBOND  =         0.0000  RESTRAINT  =         0.0000
 EKCMT  =         0.0000  VIRIAL  =         0.0000  VOLUME     =         0.0000
                                                    Density    =         0.0000
 DV/DL  =       -12.7126
 ------------------------------------------------------------------------------

      A V E R A G E S   O V E R    1000 S T E P S

 NSTEP =   500000   TIME(PS) =    1200.000  TEMP(K) =   300.16  PRESS =   -13.1
 Etot   =    -54089.0356  EKtot   =     12500.3658  EPtot      =    -66589.4015
 BOND   =         1.1896  ANGLE   =         5.4324  DIHED      =         1.6128
 1-4 NB =         0.9402  1-4 EEL =         4.5278  VDWAALS    =      9941.9747
 EELEC  =    -76545.0790  EHBOND  =         0.0000  RESTRAINT  =         0.0000
 EKCMT  =      6255.4571  VIRIAL  =      6315.6168  VOLUME     =    212513.7442
                                                    Density    =         0.9832
 DV/DL  =       -11.0661
 ------------------------------------------------------------------------------

      R M S  F L U C T U A T I O N S

 NSTEP =   500000   TIME(PS) =    1200.000  TEMP(K) =     1.90  PRESS =   135.8
 Etot   =        75.0079  EKtot   =        79.2531  EPtot      =        70.6085
 BOND   =         1.0155  ANGLE   =         1.6178  DIHED      =         0.8072
 1-4 NB =         0.8995  1-4 EEL =         0.4700  VDWAALS    =       124.7508
 EELEC  =       135.9784  EHBOND  =         0.0000  RESTRAINT  =         0.0000
 EKCMT  =        61.2275  VIRIAL  =       623.0591  VOLUME     =        39.3660
                                                    Density    =         0.0002
 DV/DL  =         2.9261
 ------------------------------------------------------------------------------

      A V E R A G E S   O V E R    1000 S T E P S

 NSTEP =   500000   TIME(PS) =    1200.000  TEMP(K) =   300.16  PRESS =   -13.1
 Etot   =    -54089.0356  EKtot   =     12500.3658  EPtot      =    -66589.4015
 BOND   =         1.1896  ANGLE   =         5.4324  DIHED      =         1.6128
 1-4 NB =         0.9402  1-4 EEL =         4.5278  VDWAALS    =      9941.9747
 EELEC  =    -76545.0790  EHBOND  =         0.0000  RESTRAINT  =         0.0000
 EKCMT  =      6255.4571  VIRIAL  =      6315.6168  VOLUME     =    212513.7442
                                                    Density    =         0.9832
 DV/DL  =       -11.0661
 ------------------------------------------------------------------------------

      R M S  F L U C T U A T I O N S

 NSTEP =   500000   TIME(PS) =    1200.000  TEMP(K) =     1.90  PRESS =   135.8
 Etot   =        75.0079  EKtot   =        79.2531  EPtot      =        70.6085
 BOND   =         1.0155  ANGLE   =         1.6178  DIHED      =         0.8072
 1-4 NB =         0.8995  1-4 EEL =         0.4700  VDWAALS    =       124.7508
 EELEC  =       135.9784  EHBOND  =         0.0000  RESTRAINT  =         0.0000
 EKCMT  =        61.2275  VIRIAL  =       623.0591  VOLUME     =        39.3660
                                                    Density    =         0.0002
 DV/DL  =         2.9261
 ------------------------------------------------------------------------------

      DV/DL, AVERAGES OVER    1000 STEPS

 NSTEP =   500000   TIME(PS) =    1200.000  TEMP(K) =     1.90  PRESS =     0.0
 Etot   =         0.0000  EKtot   =         0.0000  EPtot      =       -11.0661
 BOND   =         0.0000  ANGLE   =         0.0000  DIHED      =         0.0000
 1-4 NB =         0.0000  1-4 EEL =       -39.3552  VDWAALS    =         0.0000
 EELEC  =        28.2891  EHBOND  =         0.0000  RESTRAINT  =         0.0000
 EKCMT  =         0.0000  VIRIAL  =         0.0000  VOLUME     =         0.0000
                                                    Density    =         0.0000
 DV/DL  =       -11.0661
 ------------------------------------------------------------------------------

      A V E R A G E S   O V E R  500000 S T E P S

 NSTEP =   500000   TIME(PS) =    1200.000  TEMP(K) =   300.02  PRESS =    -8.9
 Etot   =    -54086.5367  EKtot   =     12494.3777  EPtot      =    -66580.9143
 BOND   =         0.9301  ANGLE   =         4.8718  DIHED      =         1.1034
 1-4 NB =         0.5958  1-4 EEL =         4.2680  VDWAALS    =      9953.6166
 EELEC  =    -76546.3001  EHBOND  =         0.0000  RESTRAINT  =         0.0000
 EKCMT  =      6264.2878  VIRIAL  =      6307.1873  VOLUME     =    212736.7210
                                                    Density    =         0.9822
 DV/DL  =       -12.5243
 ------------------------------------------------------------------------------

      R M S  F L U C T U A T I O N S

 NSTEP =   500000   TIME(PS) =    1200.000  TEMP(K) =     2.08  PRESS =   146.2
 Etot   =       168.2203  EKtot   =        86.8103  EPtot      =       144.3079
 BOND   =         0.7626  ANGLE   =         1.7214  DIHED      =         0.7927
 1-4 NB =         0.7000  1-4 EEL =         0.7341  VDWAALS    =       126.7208
 EELEC  =       219.9814  EHBOND  =         0.0000  RESTRAINT  =         0.0000
 EKCMT  =        61.4081  VIRIAL  =       677.0900  VOLUME     =      1382.6106
                                                    Density    =         0.0060
 DV/DL  =         2.3716
 ------------------------------------------------------------------------------

      A V E R A G E S   O V E R  500000 S T E P S

 NSTEP =   500000   TIME(PS) =    1200.000  TEMP(K) =   300.02  PRESS =    -8.9
 Etot   =    -54086.5367  EKtot   =     12494.3777  EPtot      =    -66580.9143
 BOND   =         0.9301  ANGLE   =         4.8718  DIHED      =         1.1034
 1-4 NB =         0.5958  1-4 EEL =         4.2680  VDWAALS    =      9953.6166
 EELEC  =    -76546.3001  EHBOND  =         0.0000  RESTRAINT  =         0.0000
 EKCMT  =      6264.2878  VIRIAL  =      6307.1873  VOLUME     =    212736.7210
                                                    Density    =         0.9822
 DV/DL  =       -12.5243
 ------------------------------------------------------------------------------

      R M S  F L U C T U A T I O N S

 NSTEP =   500000   TIME(PS) =    1200.000  TEMP(K) =     2.08  PRESS =   146.2
 Etot   =       168.2203  EKtot   =        86.8103  EPtot      =       144.3079
 BOND   =         0.7626  ANGLE   =         1.7214  DIHED      =         0.7927
 1-4 NB =         0.7000  1-4 EEL =         0.7341  VDWAALS    =       126.7208
 EELEC  =       219.9814  EHBOND  =         0.0000  RESTRAINT  =         0.0000
 EKCMT  =        61.4081  VIRIAL  =       677.0900  VOLUME     =      1382.6106
                                                    Density    =         0.0060
 DV/DL  =         2.3716
 ------------------------------------------------------------------------------

      DV/DL, AVERAGES OVER  500000 STEPS

 NSTEP =   500000   TIME(PS) =    1200.000  TEMP(K) =     2.08  PRESS =     0.0
 Etot   =         0.0000  EKtot   =         0.0000  EPtot      =       -12.5243
 BOND   =         0.0000  ANGLE   =         0.0000  DIHED      =         0.0000
 1-4 NB =         0.0000  1-4 EEL =       -37.0973  VDWAALS    =         0.0000
 EELEC  =        24.5730  EHBOND  =         0.0000  RESTRAINT  =         0.0000
 EKCMT  =         0.0000  VIRIAL  =         0.0000  VOLUME     =         0.0000
                                                    Density    =         0.0000
 DV/DL  =       -12.5243
 ------------------------------------------------------------------------------
