-------------------------------------------------------
          Amber 20 PMEMD                              2020
          -------------------------------------------------------

  [-O]verwriting output

File Assignments:

 Here is the input file:

 &cntrl
   nstlim=500000, nscm=1000,
   ntx=5, irest=1, ntpr=1000,
   tempi=300.0, temp0=300.0, ntt=3, gamma_ln=2.0,
   ntp=1, pres0=1.01325, taup=5.0,
   ntb=2, igb=0, cut=10.0,
   dt=0.002, ig=-1,
   ntc=2, ntf=2,
   iwrap=0,
   ntwr=1000, ntwx=50000, ntave=1000,
   ioutfm=1, ntwv=-1,
   ifsc = 0, icfe=1,
   clambda=0.99078,
   timask1=':1',
   timask2=':2', crgmask = ':2',
/

Note: ig = -1. Setting random seed to   376511 based on wallclock time in
      microseconds.

--------------------------------------------------------------------------------
   1.  RESOURCE   USE:
--------------------------------------------------------------------------------

 getting box info from netcdf restart file
 NATOM  =   20967 NTYPES =       6 NBONH =   20959 MBONA  =       6
 NTHETH =      32 MTHETA =       4 NPHIH =      40 MPHIA  =       2
 NHPARM =       0 NPARM  =       0 NNB   =   28026 NRES   =    6983
 NBONA  =       6 NTHETA =       4 NPHIA =       2 NUMBND =       6
 NUMANG =       6 NPTRA  =       2 NATYP =       6 NPHB   =       1
 IFBOX  =       2 NMXRS  =      12 IFCAP =       0 NEXTRA =       0
 NCOPY  =       0

     BOX TYPE: TRUNCATED OCTAHEDRON

--------------------------------------------------------------------------------
   2.  CONTROL  DATA  FOR  THE  RUN
--------------------------------------------------------------------------------

default_name

General flags:
     imin    =       0, nmropt  =       0

Nature and format of input:
     ntx     =       5, irest   =       1, ntrx    =       1

Nature and format of output:
     ntxo    =       2, ntpr    =    1000, ntrx    =       1, ntwr    =    1000
     iwrap   =       0, ntwx    =   50000, ntwv    =      -1, ntwe    =       0
     ioutfm  =       1, ntwprt  =       0, idecomp =       0, rbornstat=      0

Potential function:
     ntf     =       2, ntb     =       2, igb     =       0, nsnb    =      25
     ipol    =       0, gbsa    =       0, iesp    =       0
     dielc   =   1.00000, cut     =  10.00000, intdiel =   1.00000

Frozen or restrained atoms:
     ibelly  =       0, ntr     =       0

Molecular dynamics:
     nstlim  =    500000, nscm    =      1000, nrespa  =         1
     t       =   0.00000, dt      =   0.00200, vlimit  =  -1.00000

Langevin dynamics temperature regulation:
     ig      =  376511
     temp0   = 300.00000, tempi   = 300.00000, gamma_ln=   2.00000

Pressure regulation:
     ntp     =       1
     pres0   =   1.01325, comp    =  44.60000, taup    =   5.00000

SHAKE:
     ntc     =       2, jfastw  =       0
     tol     =   0.00001

Free energy options:
     icfe    =       1, ifsc    =       0, klambda =       1
     clambda =  0.9908, scalpha =  0.5000, scbeta  = 12.0000
     sceeorder =       2
     dynlmb =  0.0000 logdvdl =       0

Ewald parameters:
     verbose =       0, ew_type =       0, nbflag  =       1, use_pme =       1
     vdwmeth =       1, eedmeth =       1, netfrc  =       1
     Box X =   67.054   Box Y =   67.054   Box Z =   67.054
     Alpha =  109.471   Beta  =  109.471   Gamma =  109.471
     NFFT1 =   64       NFFT2 =   64       NFFT3 =   64
     Cutoff=   10.000   Tol   =0.100E-04
     Ewald Coefficient =  0.27511
     Interpolation order =    4
     TI Mask 1 :1; matches     12 atoms
     TI Mask 2 :2; matches     12 atoms
     TI region 1:   20955 atoms
     TI region 2:   20955 atoms
Removing charge of      -0.6664 from atom      13
Removing charge of      -0.6664 from atom      14
Removing charge of      -0.0664 from atom      15
Removing charge of      -0.0664 from atom      16
Removing charge of       0.2792 from atom      17
Removing charge of       0.2802 from atom      18
Removing charge of       0.2802 from atom      19
Removing charge of       0.2792 from atom      20
Removing charge of       0.0898 from atom      21
Removing charge of       0.0837 from atom      22
Removing charge of       0.0898 from atom      23
Removing charge of       0.0837 from atom      24
Total charge of  -0.00000000 removed from      12 atoms
     Checking for mismatched coordinates.

--------------------------------------------------------------------------------
   3.  ATOMIC COORDINATES AND VELOCITIES
--------------------------------------------------------------------------------

default_name
 begin time read from input coords =   200.000 ps

 Number of triangulated 3-point waters found:     6981

     Sum of charges for TI region  1 =  -0.00000000
     Skip neutralizing charges...

     Sum of charges for TI region  2 =   0.00000000
     Skip neutralizing charges...

--------------------------------------------------------------------------------
   4.  RESULTS
 NSTEP =     1000   TIME(PS) =     202.000  TEMP(K) =   300.41  PRESS =  -440.7
 Etot   =    -53116.2350  EKtot   =     12510.8571  EPtot      =    -65627.0922
 BOND   =         0.3849  ANGLE   =         3.0964  DIHED      =         0.2302
 1-4 NB =         0.5970  1-4 EEL =         0.3747  VDWAALS    =      9808.3682
 EELEC  =    -75440.1436  EHBOND  =         0.0000  RESTRAINT  =         0.0000
 EKCMT  =      6216.0169  VIRIAL  =      8398.2933  VOLUME     =    229344.0975
                                                    Density    =         0.9111
 DV/DL  =       -15.2942
 ------------------------------------------------------------------------------

      A V E R A G E S   O V E R    1000 S T E P S

 NSTEP =     1000   TIME(PS) =     202.000  TEMP(K) =   298.40  PRESS =  -665.0
 Etot   =    -53363.6682  EKtot   =     12427.0567  EPtot      =    -65790.7249
 BOND   =         0.7161  ANGLE   =         4.3262  DIHED      =         0.7619
 1-4 NB =         0.7328  1-4 EEL =         0.3769  VDWAALS    =      9725.2494
 EELEC  =    -75522.8884  EHBOND  =         0.0000  RESTRAINT  =         0.0000
 EKCMT  =      6262.2912  VIRIAL  =      9575.0145  VOLUME     =    230672.1507
                                                    Density    =         0.9058
 DV/DL  =       -13.9443
 ------------------------------------------------------------------------------

      R M S  F L U C T U A T I O N S

 NSTEP =     1000   TIME(PS) =     202.000  TEMP(K) =     1.95  PRESS =   125.1
 Etot   =       112.8186  EKtot   =        81.1581  EPtot      =        97.9036
 BOND   =         0.5199  ANGLE   =         1.2907  DIHED      =         0.4663
 1-4 NB =         0.6073  1-4 EEL =         0.0223  VDWAALS    =       130.6571
 EELEC  =       185.1664  EHBOND  =         0.0000  RESTRAINT  =         0.0000
 EKCMT  =        48.1389  VIRIAL  =       617.5633  VOLUME     =       790.8116
                                                    Density    =         0.0031
 DV/DL  =         2.3911
 ------------------------------------------------------------------------------

      A V E R A G E S   O V E R    1000 S T E P S

 NSTEP =     1000   TIME(PS) =     202.000  TEMP(K) =   298.40  PRESS =  -665.0
 Etot   =    -53363.6682  EKtot   =     12427.0567  EPtot      =    -65790.7249
 BOND   =         0.7161  ANGLE   =         4.3262  DIHED      =         0.7619
 1-4 NB =         0.7328  1-4 EEL =         0.3769  VDWAALS    =      9725.2494
 EELEC  =    -75522.8884  EHBOND  =         0.0000  RESTRAINT  =         0.0000
 EKCMT  =      6262.2912  VIRIAL  =      9575.0145  VOLUME     =    230672.1507
                                                    Density    =         0.9058
 DV/DL  =       -13.9443
 ------------------------------------------------------------------------------

      R M S  F L U C T U A T I O N S

 NSTEP =     1000   TIME(PS) =     202.000  TEMP(K) =     1.95  PRESS =   125.1
 Etot   =       112.8186  EKtot   =        81.1581  EPtot      =        97.9036
 BOND   =         0.5199  ANGLE   =         1.2907  DIHED      =         0.4663
 1-4 NB =         0.6073  1-4 EEL =         0.0223  VDWAALS    =       130.6571
 EELEC  =       185.1664  EHBOND  =         0.0000  RESTRAINT  =         0.0000
 EKCMT  =        48.1389  VIRIAL  =       617.5633  VOLUME     =       790.8116
                                                    Density    =         0.0031
 DV/DL  =         2.3911
 ------------------------------------------------------------------------------

      DV/DL, AVERAGES OVER    1000 STEPS

 NSTEP =     1000   TIME(PS) =     202.000  TEMP(K) =     1.95  PRESS =     0.0
 Etot   =         0.0000  EKtot   =         0.0000  EPtot      =       -13.9443
 BOND   =         0.0000  ANGLE   =         0.0000  DIHED      =         0.0000
 1-4 NB =         0.0000  1-4 EEL =       -40.8823  VDWAALS    =         0.0000
 EELEC  =        26.9380  EHBOND  =         0.0000  RESTRAINT  =         0.0000
 EKCMT  =         0.0000  VIRIAL  =         0.0000  VOLUME     =         0.0000
                                                    Density    =         0.0000
 DV/DL  =       -13.9443
 ------------------------------------------------------------------------------

      A V E R A G E S   O V E R    1000 S T E P S

 NSTEP =     2000   TIME(PS) =     204.000  TEMP(K) =   300.34  PRESS =  -559.4
 Etot   =    -53230.0318  EKtot   =     12507.6529  EPtot      =    -65737.6847
 BOND   =         0.7293  ANGLE   =         4.4598  DIHED      =         0.8503
 1-4 NB =         0.6610  1-4 EEL =         0.3770  VDWAALS    =      9715.7992
 EELEC  =    -75460.5612  EHBOND  =         0.0000  RESTRAINT  =         0.0000
 EKCMT  =      6282.4597  VIRIAL  =      9038.6548  VOLUME     =    228238.2288
                                                    Density    =         0.9155
 DV/DL  =       -13.3571
 ------------------------------------------------------------------------------

      R M S  F L U C T U A T I O N S

 NSTEP =     2000   TIME(PS) =     204.000  TEMP(K) =     1.87  PRESS =   106.1
 Etot   =       129.0917  EKtot   =        78.0676  EPtot      =       108.5287
 BOND   =         0.7127  ANGLE   =         1.6879  DIHED      =         0.5814
 1-4 NB =         0.4627  1-4 EEL =         0.0162  VDWAALS    =        95.7296
 EELEC  =       135.9832  EHBOND  =         0.0000  RESTRAINT  =         0.0000
 EKCMT  =        60.8313  VIRIAL  =       514.8662  VOLUME     =       646.8797
                                                    Density    =         0.0026
 DV/DL  =         2.0949
 ------------------------------------------------------------------------------

      A V E R A G E S   O V E R    1000 S T E P S

 NSTEP =     2000   TIME(PS) =     204.000  TEMP(K) =   300.34  PRESS =  -559.4
 Etot   =    -53230.0318  EKtot   =     12507.6529  EPtot      =    -65737.6847
 BOND   =         0.7293  ANGLE   =         4.4598  DIHED      =         0.8503
 1-4 NB =         0.6610  1-4 EEL =         0.3770  VDWAALS    =      9715.7992
 EELEC  =    -75460.5612  EHBOND  =         0.0000  RESTRAINT  =         0.0000
 EKCMT  =      6282.4597  VIRIAL  =      9038.6548  VOLUME     =    228238.2288
                                                    Density    =         0.9155
 DV/DL  =       -13.3571
 ------------------------------------------------------------------------------

      R M S  F L U C T U A T I O N S

 NSTEP =     2000   TIME(PS) =     204.000  TEMP(K) =     1.87  PRESS =   106.1
 Etot   =       129.0917  EKtot   =        78.0676  EPtot      =       108.5287
 BOND   =         0.7127  ANGLE   =         1.6879  DIHED      =         0.5814
 1-4 NB =         0.4627  1-4 EEL =         0.0162  VDWAALS    =        95.7296
 EELEC  =       135.9832  EHBOND  =         0.0000  RESTRAINT  =         0.0000
 EKCMT  =        60.8313  VIRIAL  =       514.8662  VOLUME     =       646.8797
                                                    Density    =         0.0026
 DV/DL  =         2.0949
 ------------------------------------------------------------------------------

      DV/DL, AVERAGES OVER    1000 STEPS

 NSTEP =     2000   TIME(PS) =     204.000  TEMP(K) =     1.87  PRESS =     0.0
 Etot   =         0.0000  EKtot   =         0.0000  EPtot      =       -13.3571
 BOND   =         0.0000  ANGLE   =         0.0000  DIHED      =         0.0000
 1-4 NB =         0.0000  1-4 EEL =       -40.8888  VDWAALS    =         0.0000
 EELEC  =        27.5317  EHBOND  =         0.0000  RESTRAINT  =         0.0000
 EKCMT  =         0.0000  VIRIAL  =         0.0000  VOLUME     =         0.0000
                                                    Density    =         0.0000
 DV/DL  =       -13.3571
 ------------------------------------------------------------------------------

      A V E R A G E S   O V E R    1000 S T E P S

 NSTEP =   500000   TIME(PS) =    1200.000  TEMP(K) =   300.30  PRESS =   -21.8
 Etot   =    -54004.9053  EKtot   =     12506.3468  EPtot      =    -66511.2520
 BOND   =         1.2438  ANGLE   =         5.2112  DIHED      =         1.1526
 1-4 NB =         1.0357  1-4 EEL =         0.3778  VDWAALS    =      9925.1675
 EELEC  =    -76445.4405  EHBOND  =         0.0000  RESTRAINT  =         0.0000
 EKCMT  =      6254.0869  VIRIAL  =      6354.1428  VOLUME     =    212731.6322
                                                    Density    =         0.9822
 DV/DL  =       -12.6232
 ------------------------------------------------------------------------------

      R M S  F L U C T U A T I O N S

 NSTEP =   500000   TIME(PS) =    1200.000  TEMP(K) =     1.86  PRESS =   122.7
 Etot   =        69.4415  EKtot   =        77.2630  EPtot      =        70.9207
 BOND   =         0.9267  ANGLE   =         1.8451  DIHED      =         0.6491
 1-4 NB =         1.2657  1-4 EEL =         0.0307  VDWAALS    =       112.2028
 EELEC  =       140.4148  EHBOND  =         0.0000  RESTRAINT  =         0.0000
 EKCMT  =        55.1696  VIRIAL  =       563.9092  VOLUME     =        42.8579
                                                    Density    =         0.0002
 DV/DL  =         2.5726
 ------------------------------------------------------------------------------

      A V E R A G E S   O V E R    1000 S T E P S

 NSTEP =   500000   TIME(PS) =    1200.000  TEMP(K) =   300.30  PRESS =   -21.8
 Etot   =    -54004.9053  EKtot   =     12506.3468  EPtot      =    -66511.2520
 BOND   =         1.2438  ANGLE   =         5.2112  DIHED      =         1.1526
 1-4 NB =         1.0357  1-4 EEL =         0.3778  VDWAALS    =      9925.1675
 EELEC  =    -76445.4405  EHBOND  =         0.0000  RESTRAINT  =         0.0000
 EKCMT  =      6254.0869  VIRIAL  =      6354.1428  VOLUME     =    212731.6322
                                                    Density    =         0.9822
 DV/DL  =       -12.6232
 ------------------------------------------------------------------------------

      R M S  F L U C T U A T I O N S

 NSTEP =   500000   TIME(PS) =    1200.000  TEMP(K) =     1.86  PRESS =   122.7
 Etot   =        69.4415  EKtot   =        77.2630  EPtot      =        70.9207
 BOND   =         0.9267  ANGLE   =         1.8451  DIHED      =         0.6491
 1-4 NB =         1.2657  1-4 EEL =         0.0307  VDWAALS    =       112.2028
 EELEC  =       140.4148  EHBOND  =         0.0000  RESTRAINT  =         0.0000
 EKCMT  =        55.1696  VIRIAL  =       563.9092  VOLUME     =        42.8579
                                                    Density    =         0.0002
 DV/DL  =         2.5726
 ------------------------------------------------------------------------------

      DV/DL, AVERAGES OVER    1000 STEPS

 NSTEP =   500000   TIME(PS) =    1200.000  TEMP(K) =     1.86  PRESS =     0.0
 Etot   =         0.0000  EKtot   =         0.0000  EPtot      =       -12.6232
 BOND   =         0.0000  ANGLE   =         0.0000  DIHED      =         0.0000
 1-4 NB =         0.0000  1-4 EEL =       -40.9783  VDWAALS    =         0.0000
 EELEC  =        28.3552  EHBOND  =         0.0000  RESTRAINT  =         0.0000
 EKCMT  =         0.0000  VIRIAL  =         0.0000  VOLUME     =         0.0000
                                                    Density    =         0.0000
 DV/DL  =       -12.6232
 ------------------------------------------------------------------------------

      A V E R A G E S   O V E R  500000 S T E P S

 NSTEP =   500000   TIME(PS) =    1200.000  TEMP(K) =   300.14  PRESS =    -8.8
 Etot   =    -54065.9233  EKtot   =     12499.4466  EPtot      =    -66565.3700
 BOND   =         0.9352  ANGLE   =         4.9240  DIHED      =         1.1798
 1-4 NB =         0.7022  1-4 EEL =         0.3432  VDWAALS    =      9952.1298
 EELEC  =    -76525.5841  EHBOND  =         0.0000  RESTRAINT  =         0.0000
 EKCMT  =      6267.9618  VIRIAL  =      6310.3461  VOLUME     =    212874.0793
                                                    Density    =         0.9816
 DV/DL  =       -13.3557
 ------------------------------------------------------------------------------

      R M S  F L U C T U A T I O N S

 NSTEP =   500000   TIME(PS) =    1200.000  TEMP(K) =     2.09  PRESS =   143.3
 Etot   =       170.0664  EKtot   =        87.1608  EPtot      =       145.3402
 BOND   =         0.7632  ANGLE   =         1.7273  DIHED      =         0.8399
 1-4 NB =         0.9749  1-4 EEL =         0.0602  VDWAALS    =       127.6240
 EELEC  =       221.6280  EHBOND  =         0.0000  RESTRAINT  =         0.0000
 EKCMT  =        61.5569  VIRIAL  =       663.7382  VOLUME     =      1527.3862
                                                    Density    =         0.0066
 DV/DL  =         2.4446
 ------------------------------------------------------------------------------

      A V E R A G E S   O V E R  500000 S T E P S

 NSTEP =   500000   TIME(PS) =    1200.000  TEMP(K) =   300.14  PRESS =    -8.8
 Etot   =    -54065.9233  EKtot   =     12499.4466  EPtot      =    -66565.3700
 BOND   =         0.9352  ANGLE   =         4.9240  DIHED      =         1.1798
 1-4 NB =         0.7022  1-4 EEL =         0.3432  VDWAALS    =      9952.1298
 EELEC  =    -76525.5841  EHBOND  =         0.0000  RESTRAINT  =         0.0000
 EKCMT  =      6267.9618  VIRIAL  =      6310.3461  VOLUME     =    212874.0793
                                                    Density    =         0.9816
 DV/DL  =       -13.3557
 ------------------------------------------------------------------------------

      R M S  F L U C T U A T I O N S

 NSTEP =   500000   TIME(PS) =    1200.000  TEMP(K) =     2.09  PRESS =   143.3
 Etot   =       170.0664  EKtot   =        87.1608  EPtot      =       145.3402
 BOND   =         0.7632  ANGLE   =         1.7273  DIHED      =         0.8399
 1-4 NB =         0.9749  1-4 EEL =         0.0602  VDWAALS    =       127.6240
 EELEC  =       221.6280  EHBOND  =         0.0000  RESTRAINT  =         0.0000
 EKCMT  =        61.5569  VIRIAL  =       663.7382  VOLUME     =      1527.3862
                                                    Density    =         0.0066
 DV/DL  =         2.4446
 ------------------------------------------------------------------------------

      DV/DL, AVERAGES OVER  500000 STEPS

 NSTEP =   500000   TIME(PS) =    1200.000  TEMP(K) =     2.09  PRESS =     0.0
 Etot   =         0.0000  EKtot   =         0.0000  EPtot      =       -13.3557
 BOND   =         0.0000  ANGLE   =         0.0000  DIHED      =         0.0000
 1-4 NB =         0.0000  1-4 EEL =       -37.2250  VDWAALS    =         0.0000
 EELEC  =        23.8694  EHBOND  =         0.0000  RESTRAINT  =         0.0000
 EKCMT  =         0.0000  VIRIAL  =         0.0000  VOLUME     =         0.0000
                                                    Density    =         0.0000
 DV/DL  =       -13.3557
 ------------------------------------------------------------------------------
