-------------------------------------------------------
          Amber 20 PMEMD                              2020
          -------------------------------------------------------

  [-O]verwriting output

File Assignments:

 Here is the input file:

 &cntrl
   nstlim=1000000, nscm=1000,
   ntx=1, irest=0, ntpr=1000,
   tempi=300.0, temp0=300.0, ntt=3, gamma_ln=2.0,
   ntb=1, igb=0, cut=10.0,
   dt=0.001, ig=-1,
   ntc=1, ntf=1,
   iwrap=0,
   ntwr=1000, ntwx=50000, ntave=1000,
   ioutfm=1, ntwv=-1,
   ifsc = 0, icfe=1,
   clambda=0.79366,
   timask1=':1',
   timask2=':2', crgmask = ':2',
/

Note: ig = -1. Setting random seed to   571047 based on wallclock time in
      microseconds.

--------------------------------------------------------------------------------
   1.  RESOURCE   USE:
--------------------------------------------------------------------------------

 getting box info from netcdf restart file
 NATOM  =      24 NTYPES =       6 NBONH =      16 MBONA  =       6
 NTHETH =      32 MTHETA =       4 NPHIH =      40 MPHIA  =       2
 NHPARM =       0 NPARM  =       0 NNB   =     102 NRES   =       2
 NBONA  =       6 NTHETA =       4 NPHIA =       2 NUMBND =       4
 NUMANG =       6 NPTRA  =       2 NATYP =       6 NPHB   =       1
 IFBOX  =       2 NMXRS  =      12 IFCAP =       0 NEXTRA =       0
 NCOPY  =       0

     BOX TYPE: TRUNCATED OCTAHEDRON

--------------------------------------------------------------------------------
   2.  CONTROL  DATA  FOR  THE  RUN
--------------------------------------------------------------------------------

default_name

General flags:
     imin    =       0, nmropt  =       0

Nature and format of input:
     ntx     =       1, irest   =       0, ntrx    =       1

Nature and format of output:
     ntxo    =       2, ntpr    =    1000, ntrx    =       1, ntwr    =    1000
     iwrap   =       0, ntwx    =   50000, ntwv    =      -1, ntwe    =       0
     ioutfm  =       1, ntwprt  =       0, idecomp =       0, rbornstat=      0

Potential function:
     ntf     =       1, ntb     =       1, igb     =       0, nsnb    =      25
     ipol    =       0, gbsa    =       0, iesp    =       0
     dielc   =   1.00000, cut     =  10.00000, intdiel =   1.00000

Frozen or restrained atoms:
     ibelly  =       0, ntr     =       0

Molecular dynamics:
     nstlim  =   1000000, nscm    =      1000, nrespa  =         1
     t       =   0.00000, dt      =   0.00100, vlimit  =  -1.00000

Langevin dynamics temperature regulation:
     ig      =  571047
     temp0   = 300.00000, tempi   = 300.00000, gamma_ln=   2.00000

Free energy options:
     icfe    =       1, ifsc    =       0, klambda =       1
     clambda =  0.7937, scalpha =  0.5000, scbeta  = 12.0000
     sceeorder =       2
     dynlmb =  0.0000 logdvdl =       0

Ewald parameters:
     verbose =       0, ew_type =       0, nbflag  =       1, use_pme =       1
     vdwmeth =       1, eedmeth =       1, netfrc  =       1
     Box X =   67.054   Box Y =   67.054   Box Z =   67.054
     Alpha =  109.471   Beta  =  109.471   Gamma =  109.471
     NFFT1 =   64       NFFT2 =   64       NFFT3 =   64
     Cutoff=   10.000   Tol   =0.100E-04
     Ewald Coefficient =  0.27511
     Interpolation order =    4
     TI Mask 1 :1; matches     12 atoms
     TI Mask 2 :2; matches     12 atoms
     TI region 1:      12 atoms
     TI region 2:      12 atoms
Removing charge of      -0.6664 from atom      13
Removing charge of      -0.6664 from atom      14
Removing charge of      -0.0664 from atom      15
Removing charge of      -0.0664 from atom      16
Removing charge of       0.2792 from atom      17
Removing charge of       0.2802 from atom      18
Removing charge of       0.2802 from atom      19
Removing charge of       0.2792 from atom      20
Removing charge of       0.0898 from atom      21
Removing charge of       0.0837 from atom      22
Removing charge of       0.0898 from atom      23
Removing charge of       0.0837 from atom      24
Total charge of  -0.00000000 removed from      12 atoms
     Checking for mismatched coordinates.

--------------------------------------------------------------------------------
   3.  ATOMIC COORDINATES AND VELOCITIES
--------------------------------------------------------------------------------

default_name
 begin time read from input coords =     0.000 ps

 Number of triangulated 3-point waters found:        0

     Sum of charges for TI region  1 =  -0.00000000
     Skip neutralizing charges...

     Sum of charges for TI region  2 =   0.00000000
     Skip neutralizing charges...

--------------------------------------------------------------------------------
   4.  RESULTS
 NSTEP =        0   TIME(PS) =       0.000  TEMP(K) =   221.68  PRESS =     0.0
 Etot   =        11.1270  EKtot   =         7.9294  EPtot      =         3.1976
 BOND   =         0.0131  ANGLE   =         0.0511  DIHED      =         0.0770
 1-4 NB =         0.2961  1-4 EEL =         8.3988  VDWAALS    =        -0.0804
 EELEC  =        -5.5582  EHBOND  =         0.0000  RESTRAINT  =         0.0000
 DV/DL  =       -13.7668
 ------------------------------------------------------------------------------

      A V E R A G E S   O V E R    1000 S T E P S

 NSTEP =     1000   TIME(PS) =       1.000  TEMP(K) =   248.71  PRESS =     0.0
 Etot   =        19.5421  EKtot   =         8.8962  EPtot      =        10.6459
 BOND   =         2.4390  ANGLE   =         3.9535  DIHED      =         1.0171
 1-4 NB =         0.4440  1-4 EEL =         8.2915  VDWAALS    =        -0.0767
 EELEC  =        -5.4226  EHBOND  =         0.0000  RESTRAINT  =         0.0000
 DV/DL  =       -13.9056
 ------------------------------------------------------------------------------

      R M S  F L U C T U A T I O N S

 NSTEP =     1000   TIME(PS) =       1.000  TEMP(K) =    93.07  PRESS =     0.0
 Etot   =         5.5239  EKtot   =         3.3290  EPtot      =         2.9161
 BOND   =         1.4019  ANGLE   =         1.7281  DIHED      =         0.5950
 1-4 NB =         0.3028  1-4 EEL =         0.6269  VDWAALS    =         0.0166
 EELEC  =         0.5597  EHBOND  =         0.0000  RESTRAINT  =         0.0000
 DV/DL  =         0.8208
 ------------------------------------------------------------------------------

      A V E R A G E S   O V E R    1000 S T E P S

 NSTEP =     1000   TIME(PS) =       1.000  TEMP(K) =   248.74  PRESS =     0.0
 Etot   =        19.5431  EKtot   =         8.8972  EPtot      =        10.6459
 BOND   =         2.4390  ANGLE   =         3.9535  DIHED      =         1.0171
 1-4 NB =         0.4440  1-4 EEL =         8.2915  VDWAALS    =        -0.0767
 EELEC  =        -5.4226  EHBOND  =         0.0000  RESTRAINT  =         0.0000
 DV/DL  =       -13.9056
 ------------------------------------------------------------------------------

      R M S  F L U C T U A T I O N S

 NSTEP =     1000   TIME(PS) =       1.000  TEMP(K) =    92.95  PRESS =     0.0
 Etot   =         5.5227  EKtot   =         3.3247  EPtot      =         2.9161
 BOND   =         1.4019  ANGLE   =         1.7281  DIHED      =         0.5950
 1-4 NB =         0.3028  1-4 EEL =         0.6269  VDWAALS    =         0.0166
 EELEC  =         0.5597  EHBOND  =         0.0000  RESTRAINT  =         0.0000
 DV/DL  =         0.8208
 ------------------------------------------------------------------------------

      DV/DL, AVERAGES OVER    1000 STEPS

 NSTEP =     1000   TIME(PS) =       1.000  TEMP(K) =    92.95  PRESS =     0.0
 Etot   =         0.0000  EKtot   =         0.0000  EPtot      =       -13.9056
 BOND   =        -0.0007  ANGLE   =        -0.0009  DIHED      =        -0.0001
 1-4 NB =        -0.0000  1-4 EEL =       -40.1839  VDWAALS    =         0.0000
 EELEC  =        26.2801  EHBOND  =         0.0000  RESTRAINT  =         0.0000
 DV/DL  =       -13.9056
 ------------------------------------------------------------------------------

      A V E R A G E S   O V E R    1000 S T E P S

 NSTEP =     2000   TIME(PS) =       2.000  TEMP(K) =   387.43  PRESS =     0.0
 Etot   =        29.3031  EKtot   =        13.8582  EPtot      =        15.4448
 BOND   =         5.2227  ANGLE   =         5.9441  DIHED      =         1.0556
 1-4 NB =         0.4224  1-4 EEL =         8.2763  VDWAALS    =        -0.0757
 EELEC  =        -5.4005  EHBOND  =         0.0000  RESTRAINT  =         0.0000
 DV/DL  =       -13.9388
 ------------------------------------------------------------------------------

      R M S  F L U C T U A T I O N S

 NSTEP =     2000   TIME(PS) =       2.000  TEMP(K) =    67.74  PRESS =     0.0
 Etot   =         2.3796  EKtot   =         2.4229  EPtot      =         2.5466
 BOND   =         2.0262  ANGLE   =         1.6667  DIHED      =         0.6245
 1-4 NB =         0.3443  1-4 EEL =         0.5863  VDWAALS    =         0.0172
 EELEC  =         0.5320  EHBOND  =         0.0000  RESTRAINT  =         0.0000
 DV/DL  =         0.7771
 ------------------------------------------------------------------------------

      A V E R A G E S   O V E R    1000 S T E P S

 NSTEP =     2000   TIME(PS) =       2.000  TEMP(K) =   387.40  PRESS =     0.0
 Etot   =        29.3019  EKtot   =        13.8571  EPtot      =        15.4448
 BOND   =         5.2227  ANGLE   =         5.9441  DIHED      =         1.0556
 1-4 NB =         0.4224  1-4 EEL =         8.2763  VDWAALS    =        -0.0757
 EELEC  =        -5.4005  EHBOND  =         0.0000  RESTRAINT  =         0.0000
 DV/DL  =       -13.9388
 ------------------------------------------------------------------------------

      R M S  F L U C T U A T I O N S

 NSTEP =     2000   TIME(PS) =       2.000  TEMP(K) =    67.77  PRESS =     0.0
 Etot   =         2.3915  EKtot   =         2.4242  EPtot      =         2.5466
 BOND   =         2.0262  ANGLE   =         1.6667  DIHED      =         0.6245
 1-4 NB =         0.3443  1-4 EEL =         0.5863  VDWAALS    =         0.0172
 EELEC  =         0.5320  EHBOND  =         0.0000  RESTRAINT  =         0.0000
 DV/DL  =         0.7771
 ------------------------------------------------------------------------------

      DV/DL, AVERAGES OVER    1000 STEPS

 NSTEP =     2000   TIME(PS) =       2.000  TEMP(K) =    67.77  PRESS =     0.0
 Etot   =         0.0000  EKtot   =         0.0000  EPtot      =       -13.9388
 BOND   =        -0.0012  ANGLE   =        -0.0003  DIHED      =        -0.0001
 1-4 NB =        -0.0000  1-4 EEL =       -40.1098  VDWAALS    =        -0.0000
 EELEC  =        26.1727  EHBOND  =         0.0000  RESTRAINT  =         0.0000
 DV/DL  =       -13.9388
 ------------------------------------------------------------------------------

      A V E R A G E S   O V E R    1000 S T E P S

 NSTEP =  1000000   TIME(PS) =    1000.000  TEMP(K) =   377.21  PRESS =     0.0
 Etot   =        28.8209  EKtot   =        13.4925  EPtot      =        15.3284
 BOND   =         4.9756  ANGLE   =         6.2028  DIHED      =         1.2324
 1-4 NB =         0.1821  1-4 EEL =         5.8269  VDWAALS    =        -0.0502
 EELEC  =        -3.0413  EHBOND  =         0.0000  RESTRAINT  =         0.0000
 DV/DL  =       -13.5027
 ------------------------------------------------------------------------------

      R M S  F L U C T U A T I O N S

 NSTEP =  1000000   TIME(PS) =    1000.000  TEMP(K) =    86.10  PRESS =     0.0
 Etot   =         3.6218  EKtot   =         3.0796  EPtot      =         2.8578
 BOND   =         1.7797  ANGLE   =         1.8137  DIHED      =         0.7570
 1-4 NB =         0.2382  1-4 EEL =         0.1679  VDWAALS    =         0.0072
 EELEC  =         0.1133  EHBOND  =         0.0000  RESTRAINT  =         0.0000
 DV/DL  =         0.5815
 ------------------------------------------------------------------------------

      A V E R A G E S   O V E R    1000 S T E P S

 NSTEP =  1000000   TIME(PS) =    1000.000  TEMP(K) =   377.09  PRESS =     0.0
 Etot   =        28.8168  EKtot   =        13.4884  EPtot      =        15.3284
 BOND   =         4.9756  ANGLE   =         6.2028  DIHED      =         1.2324
 1-4 NB =         0.1821  1-4 EEL =         5.8269  VDWAALS    =        -0.0502
 EELEC  =        -3.0413  EHBOND  =         0.0000  RESTRAINT  =         0.0000
 DV/DL  =       -13.5027
 ------------------------------------------------------------------------------

      R M S  F L U C T U A T I O N S

 NSTEP =  1000000   TIME(PS) =    1000.000  TEMP(K) =    86.19  PRESS =     0.0
 Etot   =         3.6231  EKtot   =         3.0829  EPtot      =         2.8578
 BOND   =         1.7797  ANGLE   =         1.8137  DIHED      =         0.7570
 1-4 NB =         0.2382  1-4 EEL =         0.1679  VDWAALS    =         0.0072
 EELEC  =         0.1133  EHBOND  =         0.0000  RESTRAINT  =         0.0000
 DV/DL  =         0.5815
 ------------------------------------------------------------------------------

      DV/DL, AVERAGES OVER    1000 STEPS

 NSTEP =  1000000   TIME(PS) =    1000.000  TEMP(K) =    86.19  PRESS =     0.0
 Etot   =         0.0000  EKtot   =         0.0000  EPtot      =       -13.5027
 BOND   =        -0.0013  ANGLE   =        -0.0013  DIHED      =         0.0000
 1-4 NB =        -0.0001  1-4 EEL =       -28.2393  VDWAALS    =         0.0000
 EELEC  =        14.7392  EHBOND  =         0.0000  RESTRAINT  =         0.0000
 DV/DL  =       -13.5027
 ------------------------------------------------------------------------------

      A V E R A G E S   O V E R 1000000 S T E P S

 NSTEP =  1000000   TIME(PS) =    1000.000  TEMP(K) =   349.87  PRESS =     0.0
 Etot   =        26.6698  EKtot   =        12.5146  EPtot      =        14.1552
 BOND   =         4.7248  ANGLE   =         5.3298  DIHED      =         1.1441
 1-4 NB =         0.3273  1-4 EEL =         7.3503  VDWAALS    =        -0.0856
 EELEC  =        -4.6356  EHBOND  =         0.0000  RESTRAINT  =         0.0000
 DV/DL  =       -13.1570
 ------------------------------------------------------------------------------

      R M S  F L U C T U A T I O N S

 NSTEP =  1000000   TIME(PS) =    1000.000  TEMP(K) =    84.13  PRESS =     0.0
 Etot   =         4.2660  EKtot   =         3.0092  EPtot      =         2.9795
 BOND   =         2.0383  ANGLE   =         1.9148  DIHED      =         0.8116
 1-4 NB =         0.3465  1-4 EEL =         1.1646  VDWAALS    =         0.0375
 EELEC  =         1.2062  EHBOND  =         0.0000  RESTRAINT  =         0.0000
 DV/DL  =         0.7091
 ------------------------------------------------------------------------------

      A V E R A G E S   O V E R 1000000 S T E P S

 NSTEP =  1000000   TIME(PS) =    1000.000  TEMP(K) =   349.87  PRESS =     0.0
 Etot   =        26.6698  EKtot   =        12.5146  EPtot      =        14.1552
 BOND   =         4.7248  ANGLE   =         5.3298  DIHED      =         1.1441
 1-4 NB =         0.3273  1-4 EEL =         7.3503  VDWAALS    =        -0.0856
 EELEC  =        -4.6356  EHBOND  =         0.0000  RESTRAINT  =         0.0000
 DV/DL  =       -13.1570
 ------------------------------------------------------------------------------

      R M S  F L U C T U A T I O N S

 NSTEP =  1000000   TIME(PS) =    1000.000  TEMP(K) =    84.13  PRESS =     0.0
 Etot   =         4.2659  EKtot   =         3.0091  EPtot      =         2.9795
 BOND   =         2.0383  ANGLE   =         1.9148  DIHED      =         0.8116
 1-4 NB =         0.3465  1-4 EEL =         1.1646  VDWAALS    =         0.0375
 EELEC  =         1.2062  EHBOND  =         0.0000  RESTRAINT  =         0.0000
 DV/DL  =         0.7091
 ------------------------------------------------------------------------------

      DV/DL, AVERAGES OVER 1000000 STEPS

 NSTEP =  1000000   TIME(PS) =    1000.000  TEMP(K) =    84.13  PRESS =     0.0
 Etot   =         0.0000  EKtot   =         0.0000  EPtot      =       -13.1570
 BOND   =        -0.0002  ANGLE   =        -0.0000  DIHED      =        -0.0000
 1-4 NB =         0.0000  1-4 EEL =       -35.6225  VDWAALS    =        -0.0000
 EELEC  =        22.4657  EHBOND  =         0.0000  RESTRAINT  =         0.0000
 DV/DL  =       -13.1570
 ------------------------------------------------------------------------------
