-------------------------------------------------------
          Amber 20 PMEMD                              2020
          -------------------------------------------------------

  [-O]verwriting output

File Assignments:

 Here is the input file:

 &cntrl
   nstlim=500000, nscm=1000,
   ntx=5, irest=1, ntpr=1000,
   tempi=300.0, temp0=300.0, ntt=3, gamma_ln=2.0,
   ntp=1, pres0=1.01325, taup=5.0,
   ntb=2, igb=0, cut=10.0,
   dt=0.002, ig=-1,
   ntc=2, ntf=2,
   iwrap=0,
   ntwr=1000, ntwx=50000, ntave=1000,
   ioutfm=1, ntwv=-1,
   ifsc = 0, icfe=1,
   clambda=0.20634,
   timask1=':1',
   timask2=':2', crgmask = ':2',
/

Note: ig = -1. Setting random seed to   448788 based on wallclock time in
      microseconds.

--------------------------------------------------------------------------------
   1.  RESOURCE   USE:
--------------------------------------------------------------------------------

 getting box info from netcdf restart file
 NATOM  =   20967 NTYPES =       6 NBONH =   20959 MBONA  =       6
 NTHETH =      32 MTHETA =       4 NPHIH =      40 MPHIA  =       2
 NHPARM =       0 NPARM  =       0 NNB   =   28026 NRES   =    6983
 NBONA  =       6 NTHETA =       4 NPHIA =       2 NUMBND =       6
 NUMANG =       6 NPTRA  =       2 NATYP =       6 NPHB   =       1
 IFBOX  =       2 NMXRS  =      12 IFCAP =       0 NEXTRA =       0
 NCOPY  =       0

     BOX TYPE: TRUNCATED OCTAHEDRON

--------------------------------------------------------------------------------
   2.  CONTROL  DATA  FOR  THE  RUN
--------------------------------------------------------------------------------

default_name

General flags:
     imin    =       0, nmropt  =       0

Nature and format of input:
     ntx     =       5, irest   =       1, ntrx    =       1

Nature and format of output:
     ntxo    =       2, ntpr    =    1000, ntrx    =       1, ntwr    =    1000
     iwrap   =       0, ntwx    =   50000, ntwv    =      -1, ntwe    =       0
     ioutfm  =       1, ntwprt  =       0, idecomp =       0, rbornstat=      0

Potential function:
     ntf     =       2, ntb     =       2, igb     =       0, nsnb    =      25
     ipol    =       0, gbsa    =       0, iesp    =       0
     dielc   =   1.00000, cut     =  10.00000, intdiel =   1.00000

Frozen or restrained atoms:
     ibelly  =       0, ntr     =       0

Molecular dynamics:
     nstlim  =    500000, nscm    =      1000, nrespa  =         1
     t       =   0.00000, dt      =   0.00200, vlimit  =  -1.00000

Langevin dynamics temperature regulation:
     ig      =  448788
     temp0   = 300.00000, tempi   = 300.00000, gamma_ln=   2.00000

Pressure regulation:
     ntp     =       1
     pres0   =   1.01325, comp    =  44.60000, taup    =   5.00000

SHAKE:
     ntc     =       2, jfastw  =       0
     tol     =   0.00001

Free energy options:
     icfe    =       1, ifsc    =       0, klambda =       1
     clambda =  0.2063, scalpha =  0.5000, scbeta  = 12.0000
     sceeorder =       2
     dynlmb =  0.0000 logdvdl =       0

Ewald parameters:
     verbose =       0, ew_type =       0, nbflag  =       1, use_pme =       1
     vdwmeth =       1, eedmeth =       1, netfrc  =       1
     Box X =   67.054   Box Y =   67.054   Box Z =   67.054
     Alpha =  109.471   Beta  =  109.471   Gamma =  109.471
     NFFT1 =   64       NFFT2 =   64       NFFT3 =   64
     Cutoff=   10.000   Tol   =0.100E-04
     Ewald Coefficient =  0.27511
     Interpolation order =    4
     TI Mask 1 :1; matches     12 atoms
     TI Mask 2 :2; matches     12 atoms
     TI region 1:   20955 atoms
     TI region 2:   20955 atoms
Removing charge of      -0.6664 from atom      13
Removing charge of      -0.6664 from atom      14
Removing charge of      -0.0664 from atom      15
Removing charge of      -0.0664 from atom      16
Removing charge of       0.2792 from atom      17
Removing charge of       0.2802 from atom      18
Removing charge of       0.2802 from atom      19
Removing charge of       0.2792 from atom      20
Removing charge of       0.0898 from atom      21
Removing charge of       0.0837 from atom      22
Removing charge of       0.0898 from atom      23
Removing charge of       0.0837 from atom      24
Total charge of  -0.00000000 removed from      12 atoms
     Checking for mismatched coordinates.

--------------------------------------------------------------------------------
   3.  ATOMIC COORDINATES AND VELOCITIES
--------------------------------------------------------------------------------

default_name
 begin time read from input coords =   200.000 ps

 Number of triangulated 3-point waters found:     6981

     Sum of charges for TI region  1 =  -0.00000000
     Skip neutralizing charges...

     Sum of charges for TI region  2 =   0.00000000
     Skip neutralizing charges...

--------------------------------------------------------------------------------
   4.  RESULTS
 NSTEP =     1000   TIME(PS) =     202.000  TEMP(K) =   298.30  PRESS =  -809.5
 Etot   =    -53000.3487  EKtot   =     12422.9852  EPtot      =    -65423.3339
 BOND   =         0.2250  ANGLE   =         5.1045  DIHED      =         0.8687
 1-4 NB =         0.1276  1-4 EEL =        22.2005  VDWAALS    =      9581.1930
 EELEC  =    -75033.0531  EHBOND  =         0.0000  RESTRAINT  =         0.0000
 EKCMT  =      6269.9178  VIRIAL  =     10261.7993  VOLUME     =    228398.8270
                                                    Density    =         0.9148
 DV/DL  =        -5.3500
 ------------------------------------------------------------------------------

      A V E R A G E S   O V E R    1000 S T E P S

 NSTEP =     1000   TIME(PS) =     202.000  TEMP(K) =   299.80  PRESS =  -896.9
 Etot   =    -53009.7139  EKtot   =     12485.2797  EPtot      =    -65494.9936
 BOND   =         0.9507  ANGLE   =         5.0533  DIHED      =         1.4030
 1-4 NB =         0.2255  1-4 EEL =        22.3032  VDWAALS    =      9581.2771
 EELEC  =    -75106.2064  EHBOND  =         0.0000  RESTRAINT  =         0.0000
 EKCMT  =      6254.0380  VIRIAL  =     10712.6151  VOLUME     =    230227.0708
                                                    Density    =         0.9076
 DV/DL  =        -5.1561
 ------------------------------------------------------------------------------

      R M S  F L U C T U A T I O N S

 NSTEP =     1000   TIME(PS) =     202.000  TEMP(K) =     1.78  PRESS =   123.1
 Etot   =        77.4551  EKtot   =        74.3018  EPtot      =        75.3196
 BOND   =         0.7531  ANGLE   =         1.5264  DIHED      =         0.7947
 1-4 NB =         0.2484  1-4 EEL =         0.6396  VDWAALS    =       118.3488
 EELEC  =       150.6007  EHBOND  =         0.0000  RESTRAINT  =         0.0000
 EKCMT  =        59.9242  VIRIAL  =       610.9722  VOLUME     =      1030.9470
                                                    Density    =         0.0041
 DV/DL  =         3.4036
 ------------------------------------------------------------------------------

      A V E R A G E S   O V E R    1000 S T E P S

 NSTEP =     1000   TIME(PS) =     202.000  TEMP(K) =   299.80  PRESS =  -896.9
 Etot   =    -53009.7139  EKtot   =     12485.2797  EPtot      =    -65494.9936
 BOND   =         0.9507  ANGLE   =         5.0533  DIHED      =         1.4030
 1-4 NB =         0.2255  1-4 EEL =        22.3032  VDWAALS    =      9581.2771
 EELEC  =    -75106.2064  EHBOND  =         0.0000  RESTRAINT  =         0.0000
 EKCMT  =      6254.0380  VIRIAL  =     10712.6151  VOLUME     =    230227.0708
                                                    Density    =         0.9076
 DV/DL  =        -5.1561
 ------------------------------------------------------------------------------

      R M S  F L U C T U A T I O N S

 NSTEP =     1000   TIME(PS) =     202.000  TEMP(K) =     1.78  PRESS =   123.1
 Etot   =        77.4551  EKtot   =        74.3018  EPtot      =        75.3196
 BOND   =         0.7531  ANGLE   =         1.5264  DIHED      =         0.7947
 1-4 NB =         0.2484  1-4 EEL =         0.6396  VDWAALS    =       118.3488
 EELEC  =       150.6007  EHBOND  =         0.0000  RESTRAINT  =         0.0000
 EKCMT  =        59.9242  VIRIAL  =       610.9722  VOLUME     =      1030.9470
                                                    Density    =         0.0041
 DV/DL  =         3.4036
 ------------------------------------------------------------------------------

      DV/DL, AVERAGES OVER    1000 STEPS

 NSTEP =     1000   TIME(PS) =     202.000  TEMP(K) =     1.78  PRESS =     0.0
 Etot   =         0.0000  EKtot   =         0.0000  EPtot      =        -5.1561
 BOND   =         0.0000  ANGLE   =         0.0000  DIHED      =         0.0000
 1-4 NB =         0.0000  1-4 EEL =       -28.1017  VDWAALS    =         0.0000
 EELEC  =        22.9456  EHBOND  =         0.0000  RESTRAINT  =         0.0000
 EKCMT  =         0.0000  VIRIAL  =         0.0000  VOLUME     =         0.0000
                                                    Density    =         0.0000
 DV/DL  =        -5.1561
 ------------------------------------------------------------------------------

      A V E R A G E S   O V E R    1000 S T E P S

 NSTEP =     2000   TIME(PS) =     204.000  TEMP(K) =   299.55  PRESS =  -771.5
 Etot   =    -53221.0721  EKtot   =     12474.7605  EPtot      =    -65695.8325
 BOND   =         0.9753  ANGLE   =         5.3681  DIHED      =         1.0203
 1-4 NB =         0.1763  1-4 EEL =        22.2299  VDWAALS    =      9640.9256
 EELEC  =    -75366.5280  EHBOND  =         0.0000  RESTRAINT  =         0.0000
 EKCMT  =      6263.4589  VIRIAL  =     10042.1597  VOLUME     =    226795.2467
                                                    Density    =         0.9213
 DV/DL  =        -3.6704
 ------------------------------------------------------------------------------

      R M S  F L U C T U A T I O N S

 NSTEP =     2000   TIME(PS) =     204.000  TEMP(K) =     2.01  PRESS =   110.5
 Etot   =        96.2810  EKtot   =        83.5810  EPtot      =        97.2255
 BOND   =         0.7001  ANGLE   =         1.7227  DIHED      =         0.7075
 1-4 NB =         0.1783  1-4 EEL =         0.4547  VDWAALS    =       110.3014
 EELEC  =       159.5133  EHBOND  =         0.0000  RESTRAINT  =         0.0000
 EKCMT  =        63.9614  VIRIAL  =       568.9881  VOLUME     =       897.6415
                                                    Density    =         0.0036
 DV/DL  =         4.1747
 ------------------------------------------------------------------------------

      A V E R A G E S   O V E R    1000 S T E P S

 NSTEP =     2000   TIME(PS) =     204.000  TEMP(K) =   299.55  PRESS =  -771.5
 Etot   =    -53221.0721  EKtot   =     12474.7605  EPtot      =    -65695.8325
 BOND   =         0.9753  ANGLE   =         5.3681  DIHED      =         1.0203
 1-4 NB =         0.1763  1-4 EEL =        22.2299  VDWAALS    =      9640.9256
 EELEC  =    -75366.5280  EHBOND  =         0.0000  RESTRAINT  =         0.0000
 EKCMT  =      6263.4589  VIRIAL  =     10042.1597  VOLUME     =    226795.2467
                                                    Density    =         0.9213
 DV/DL  =        -3.6704
 ------------------------------------------------------------------------------

      R M S  F L U C T U A T I O N S

 NSTEP =     2000   TIME(PS) =     204.000  TEMP(K) =     2.01  PRESS =   110.5
 Etot   =        96.2810  EKtot   =        83.5810  EPtot      =        97.2255
 BOND   =         0.7001  ANGLE   =         1.7227  DIHED      =         0.7075
 1-4 NB =         0.1783  1-4 EEL =         0.4547  VDWAALS    =       110.3014
 EELEC  =       159.5133  EHBOND  =         0.0000  RESTRAINT  =         0.0000
 EKCMT  =        63.9614  VIRIAL  =       568.9881  VOLUME     =       897.6415
                                                    Density    =         0.0036
 DV/DL  =         4.1747
 ------------------------------------------------------------------------------

      DV/DL, AVERAGES OVER    1000 STEPS

 NSTEP =     2000   TIME(PS) =     204.000  TEMP(K) =     2.01  PRESS =     0.0
 Etot   =         0.0000  EKtot   =         0.0000  EPtot      =        -3.6704
 BOND   =         0.0000  ANGLE   =         0.0000  DIHED      =         0.0000
 1-4 NB =         0.0000  1-4 EEL =       -28.0094  VDWAALS    =         0.0000
 EELEC  =        24.3390  EHBOND  =         0.0000  RESTRAINT  =         0.0000
 EKCMT  =         0.0000  VIRIAL  =         0.0000  VOLUME     =         0.0000
                                                    Density    =         0.0000
 DV/DL  =        -3.6704
 ------------------------------------------------------------------------------

      A V E R A G E S   O V E R    1000 S T E P S

 NSTEP =   500000   TIME(PS) =    1200.000  TEMP(K) =   299.94  PRESS =    69.3
 Etot   =    -54120.8790  EKtot   =     12491.2816  EPtot      =    -66612.1607
 BOND   =         0.8615  ANGLE   =         4.3286  DIHED      =         1.0701
 1-4 NB =         0.4199  1-4 EEL =        30.4300  VDWAALS    =     10006.6854
 EELEC  =    -76655.9562  EHBOND  =         0.0000  RESTRAINT  =         0.0000
 EKCMT  =      6251.1192  VIRIAL  =      5933.2474  VOLUME     =    212351.8179
                                                    Density    =         0.9840
 DV/DL  =        -4.5957
 ------------------------------------------------------------------------------

      R M S  F L U C T U A T I O N S

 NSTEP =   500000   TIME(PS) =    1200.000  TEMP(K) =     2.21  PRESS =   139.5
 Etot   =        95.8211  EKtot   =        92.2023  EPtot      =        75.3477
 BOND   =         0.6762  ANGLE   =         1.3281  DIHED      =         0.6685
 1-4 NB =         0.3432  1-4 EEL =         1.4699  VDWAALS    =       127.8323
 EELEC  =       154.4636  EHBOND  =         0.0000  RESTRAINT  =         0.0000
 EKCMT  =        53.0680  VIRIAL  =       629.5366  VOLUME     =        97.6120
                                                    Density    =         0.0005
 DV/DL  =         2.5468
 ------------------------------------------------------------------------------

      A V E R A G E S   O V E R    1000 S T E P S

 NSTEP =   500000   TIME(PS) =    1200.000  TEMP(K) =   299.94  PRESS =    69.3
 Etot   =    -54120.8790  EKtot   =     12491.2816  EPtot      =    -66612.1607
 BOND   =         0.8615  ANGLE   =         4.3286  DIHED      =         1.0701
 1-4 NB =         0.4199  1-4 EEL =        30.4300  VDWAALS    =     10006.6854
 EELEC  =    -76655.9562  EHBOND  =         0.0000  RESTRAINT  =         0.0000
 EKCMT  =      6251.1192  VIRIAL  =      5933.2474  VOLUME     =    212351.8179
                                                    Density    =         0.9840
 DV/DL  =        -4.5957
 ------------------------------------------------------------------------------

      R M S  F L U C T U A T I O N S

 NSTEP =   500000   TIME(PS) =    1200.000  TEMP(K) =     2.21  PRESS =   139.5
 Etot   =        95.8211  EKtot   =        92.2023  EPtot      =        75.3477
 BOND   =         0.6762  ANGLE   =         1.3281  DIHED      =         0.6685
 1-4 NB =         0.3432  1-4 EEL =         1.4699  VDWAALS    =       127.8323
 EELEC  =       154.4636  EHBOND  =         0.0000  RESTRAINT  =         0.0000
 EKCMT  =        53.0680  VIRIAL  =       629.5366  VOLUME     =        97.6120
                                                    Density    =         0.0005
 DV/DL  =         2.5468
 ------------------------------------------------------------------------------

      DV/DL, AVERAGES OVER    1000 STEPS

 NSTEP =   500000   TIME(PS) =    1200.000  TEMP(K) =     2.21  PRESS =     0.0
 Etot   =         0.0000  EKtot   =         0.0000  EPtot      =        -4.5957
 BOND   =         0.0000  ANGLE   =         0.0000  DIHED      =         0.0000
 1-4 NB =         0.0000  1-4 EEL =       -38.3414  VDWAALS    =         0.0000
 EELEC  =        33.7457  EHBOND  =         0.0000  RESTRAINT  =         0.0000
 EKCMT  =         0.0000  VIRIAL  =         0.0000  VOLUME     =         0.0000
                                                    Density    =         0.0000
 DV/DL  =        -4.5957
 ------------------------------------------------------------------------------

      A V E R A G E S   O V E R  500000 S T E P S

 NSTEP =   500000   TIME(PS) =    1200.000  TEMP(K) =   300.01  PRESS =    -8.8
 Etot   =    -54084.0107  EKtot   =     12494.0941  EPtot      =    -66578.1048
 BOND   =         0.9562  ANGLE   =         4.9061  DIHED      =         1.1282
 1-4 NB =         0.4053  1-4 EEL =        27.8904  VDWAALS    =      9955.0801
 EELEC  =    -76568.4712  EHBOND  =         0.0000  RESTRAINT  =         0.0000
 EKCMT  =      6263.8042  VIRIAL  =      6306.4633  VOLUME     =    212709.8422
                                                    Density    =         0.9824
 DV/DL  =        -3.3351
 ------------------------------------------------------------------------------

      R M S  F L U C T U A T I O N S

 NSTEP =   500000   TIME(PS) =    1200.000  TEMP(K) =     2.06  PRESS =   147.4
 Etot   =       167.5765  EKtot   =        85.7819  EPtot      =       144.4168
 BOND   =         0.7769  ANGLE   =         1.7289  DIHED      =         0.7933
 1-4 NB =         0.4022  1-4 EEL =         4.8738  VDWAALS    =       128.1724
 EELEC  =       224.7371  EHBOND  =         0.0000  RESTRAINT  =         0.0000
 EKCMT  =        61.4436  VIRIAL  =       685.1292  VOLUME     =      1305.3677
                                                    Density    =         0.0057
 DV/DL  =         3.5833
 ------------------------------------------------------------------------------

      A V E R A G E S   O V E R  500000 S T E P S

 NSTEP =   500000   TIME(PS) =    1200.000  TEMP(K) =   300.01  PRESS =    -8.8
 Etot   =    -54084.0107  EKtot   =     12494.0941  EPtot      =    -66578.1048
 BOND   =         0.9562  ANGLE   =         4.9061  DIHED      =         1.1282
 1-4 NB =         0.4053  1-4 EEL =        27.8904  VDWAALS    =      9955.0801
 EELEC  =    -76568.4712  EHBOND  =         0.0000  RESTRAINT  =         0.0000
 EKCMT  =      6263.8042  VIRIAL  =      6306.4633  VOLUME     =    212709.8422
                                                    Density    =         0.9824
 DV/DL  =        -3.3351
 ------------------------------------------------------------------------------

      R M S  F L U C T U A T I O N S

 NSTEP =   500000   TIME(PS) =    1200.000  TEMP(K) =     2.06  PRESS =   147.4
 Etot   =       167.5765  EKtot   =        85.7819  EPtot      =       144.4168
 BOND   =         0.7769  ANGLE   =         1.7289  DIHED      =         0.7933
 1-4 NB =         0.4022  1-4 EEL =         4.8738  VDWAALS    =       128.1724
 EELEC  =       224.7371  EHBOND  =         0.0000  RESTRAINT  =         0.0000
 EKCMT  =        61.4436  VIRIAL  =       685.1292  VOLUME     =      1305.3677
                                                    Density    =         0.0057
 DV/DL  =         3.5833
 ------------------------------------------------------------------------------

      DV/DL, AVERAGES OVER  500000 STEPS

 NSTEP =   500000   TIME(PS) =    1200.000  TEMP(K) =     2.06  PRESS =     0.0
 Etot   =         0.0000  EKtot   =         0.0000  EPtot      =        -3.3351
 BOND   =         0.0000  ANGLE   =         0.0000  DIHED      =         0.0000
 1-4 NB =         0.0000  1-4 EEL =       -35.1415  VDWAALS    =         0.0000
 EELEC  =        31.8064  EHBOND  =         0.0000  RESTRAINT  =         0.0000
 EKCMT  =         0.0000  VIRIAL  =         0.0000  VOLUME     =         0.0000
                                                    Density    =         0.0000
 DV/DL  =        -3.3351
 ------------------------------------------------------------------------------
