-------------------------------------------------------
          Amber 20 PMEMD                              2020
          -------------------------------------------------------

  [-O]verwriting output

File Assignments:

 Here is the input file:

 &cntrl
   nstlim=1000000, nscm=1000,
   ntx=1, irest=0, ntpr=1000,
   tempi=300.0, temp0=300.0, ntt=3, gamma_ln=2.0,
   ntb=1, igb=0, cut=10.0,
   dt=0.001, ig=-1,
   ntc=1, ntf=1,
   iwrap=0,
   ntwr=1000, ntwx=50000, ntave=1000,
   ioutfm=1, ntwv=-1,
   ifsc = 0, icfe=1,
   clambda=0.04794,
   timask1=':1',
   timask2=':2', crgmask = ':2',
/

Note: ig = -1. Setting random seed to   607856 based on wallclock time in
      microseconds.

--------------------------------------------------------------------------------
   1.  RESOURCE   USE:
--------------------------------------------------------------------------------

 getting box info from netcdf restart file
 NATOM  =      24 NTYPES =       6 NBONH =      16 MBONA  =       6
 NTHETH =      32 MTHETA =       4 NPHIH =      40 MPHIA  =       2
 NHPARM =       0 NPARM  =       0 NNB   =     102 NRES   =       2
 NBONA  =       6 NTHETA =       4 NPHIA =       2 NUMBND =       4
 NUMANG =       6 NPTRA  =       2 NATYP =       6 NPHB   =       1
 IFBOX  =       2 NMXRS  =      12 IFCAP =       0 NEXTRA =       0
 NCOPY  =       0

     BOX TYPE: TRUNCATED OCTAHEDRON

--------------------------------------------------------------------------------
   2.  CONTROL  DATA  FOR  THE  RUN
--------------------------------------------------------------------------------

default_name

General flags:
     imin    =       0, nmropt  =       0

Nature and format of input:
     ntx     =       1, irest   =       0, ntrx    =       1

Nature and format of output:
     ntxo    =       2, ntpr    =    1000, ntrx    =       1, ntwr    =    1000
     iwrap   =       0, ntwx    =   50000, ntwv    =      -1, ntwe    =       0
     ioutfm  =       1, ntwprt  =       0, idecomp =       0, rbornstat=      0

Potential function:
     ntf     =       1, ntb     =       1, igb     =       0, nsnb    =      25
     ipol    =       0, gbsa    =       0, iesp    =       0
     dielc   =   1.00000, cut     =  10.00000, intdiel =   1.00000

Frozen or restrained atoms:
     ibelly  =       0, ntr     =       0

Molecular dynamics:
     nstlim  =   1000000, nscm    =      1000, nrespa  =         1
     t       =   0.00000, dt      =   0.00100, vlimit  =  -1.00000

Langevin dynamics temperature regulation:
     ig      =  607856
     temp0   = 300.00000, tempi   = 300.00000, gamma_ln=   2.00000

Free energy options:
     icfe    =       1, ifsc    =       0, klambda =       1
     clambda =  0.0479, scalpha =  0.5000, scbeta  = 12.0000
     sceeorder =       2
     dynlmb =  0.0000 logdvdl =       0

Ewald parameters:
     verbose =       0, ew_type =       0, nbflag  =       1, use_pme =       1
     vdwmeth =       1, eedmeth =       1, netfrc  =       1
     Box X =   67.054   Box Y =   67.054   Box Z =   67.054
     Alpha =  109.471   Beta  =  109.471   Gamma =  109.471
     NFFT1 =   64       NFFT2 =   64       NFFT3 =   64
     Cutoff=   10.000   Tol   =0.100E-04
     Ewald Coefficient =  0.27511
     Interpolation order =    4
     TI Mask 1 :1; matches     12 atoms
     TI Mask 2 :2; matches     12 atoms
     TI region 1:      12 atoms
     TI region 2:      12 atoms
Removing charge of      -0.6664 from atom      13
Removing charge of      -0.6664 from atom      14
Removing charge of      -0.0664 from atom      15
Removing charge of      -0.0664 from atom      16
Removing charge of       0.2792 from atom      17
Removing charge of       0.2802 from atom      18
Removing charge of       0.2802 from atom      19
Removing charge of       0.2792 from atom      20
Removing charge of       0.0898 from atom      21
Removing charge of       0.0837 from atom      22
Removing charge of       0.0898 from atom      23
Removing charge of       0.0837 from atom      24
Total charge of  -0.00000000 removed from      12 atoms
     Checking for mismatched coordinates.

--------------------------------------------------------------------------------
   3.  ATOMIC COORDINATES AND VELOCITIES
--------------------------------------------------------------------------------

default_name
 begin time read from input coords =     0.000 ps

 Number of triangulated 3-point waters found:        0

     Sum of charges for TI region  1 =  -0.00000000
     Skip neutralizing charges...

     Sum of charges for TI region  2 =   0.00000000
     Skip neutralizing charges...

--------------------------------------------------------------------------------
   4.  RESULTS
 NSTEP =        0   TIME(PS) =       0.000  TEMP(K) =   274.28  PRESS =     0.0
 Etot   =        92.7483  EKtot   =         9.8109  EPtot      =        82.9374
 BOND   =         0.1656  ANGLE   =        64.3389  DIHED      =         2.6639
 1-4 NB =         2.1439  1-4 EEL =        40.6341  VDWAALS    =        -0.1180
 EELEC  =       -26.8910  EHBOND  =         0.0000  RESTRAINT  =         0.0000
 DV/DL  =       -14.4352
 ------------------------------------------------------------------------------

      A V E R A G E S   O V E R    1000 S T E P S

 NSTEP =     1000   TIME(PS) =       1.000  TEMP(K) =   676.30  PRESS =     0.0
 Etot   =        67.9216  EKtot   =        24.1907  EPtot      =        43.7308
 BOND   =         9.2535  ANGLE   =        18.7140  DIHED      =         2.2048
 1-4 NB =         0.9165  1-4 EEL =        32.0180  VDWAALS    =        -0.0614
 EELEC  =       -19.3145  EHBOND  =         0.0000  RESTRAINT  =         0.0000
 DV/DL  =       -13.3392
 ------------------------------------------------------------------------------

      R M S  F L U C T U A T I O N S

 NSTEP =     1000   TIME(PS) =       1.000  TEMP(K) =   293.98  PRESS =     0.0
 Etot   =        16.2444  EKtot   =        10.5155  EPtot      =        17.2150
 BOND   =         4.2062  ANGLE   =        17.3244  DIHED      =         1.1782
 1-4 NB =         0.9923  1-4 EEL =         6.5938  VDWAALS    =         0.0356
 EELEC  =         6.6442  EHBOND  =         0.0000  RESTRAINT  =         0.0000
 DV/DL  =         0.9489
 ------------------------------------------------------------------------------

      A V E R A G E S   O V E R    1000 S T E P S

 NSTEP =     1000   TIME(PS) =       1.000  TEMP(K) =   676.31  PRESS =     0.0
 Etot   =        67.9221  EKtot   =        24.1913  EPtot      =        43.7308
 BOND   =         9.2535  ANGLE   =        18.7140  DIHED      =         2.2048
 1-4 NB =         0.9165  1-4 EEL =        32.0180  VDWAALS    =        -0.0614
 EELEC  =       -19.3145  EHBOND  =         0.0000  RESTRAINT  =         0.0000
 DV/DL  =       -13.3392
 ------------------------------------------------------------------------------

      R M S  F L U C T U A T I O N S

 NSTEP =     1000   TIME(PS) =       1.000  TEMP(K) =   294.17  PRESS =     0.0
 Etot   =        16.2487  EKtot   =        10.5224  EPtot      =        17.2150
 BOND   =         4.2062  ANGLE   =        17.3244  DIHED      =         1.1782
 1-4 NB =         0.9923  1-4 EEL =         6.5938  VDWAALS    =         0.0356
 EELEC  =         6.6442  EHBOND  =         0.0000  RESTRAINT  =         0.0000
 DV/DL  =         0.9489
 ------------------------------------------------------------------------------

      DV/DL, AVERAGES OVER    1000 STEPS

 NSTEP =     1000   TIME(PS) =       1.000  TEMP(K) =   294.17  PRESS =     0.0
 Etot   =         0.0000  EKtot   =         0.0000  EPtot      =       -13.3392
 BOND   =         0.0021  ANGLE   =         0.0029  DIHED      =        -0.0002
 1-4 NB =        -0.0009  1-4 EEL =       -33.6302  VDWAALS    =         0.0000
 EELEC  =        20.2871  EHBOND  =         0.0000  RESTRAINT  =         0.0000
 DV/DL  =       -13.3392
 ------------------------------------------------------------------------------

      A V E R A G E S   O V E R    1000 S T E P S

 NSTEP =     2000   TIME(PS) =       2.000  TEMP(K) =   331.57  PRESS =     0.0
 Etot   =        35.3916  EKtot   =        11.8602  EPtot      =        23.5314
 BOND   =         4.9100  ANGLE   =         4.7874  DIHED      =         0.9802
 1-4 NB =         0.1706  1-4 EEL =        27.4227  VDWAALS    =        -0.0371
 EELEC  =       -14.7023  EHBOND  =         0.0000  RESTRAINT  =         0.0000
 DV/DL  =       -13.3642
 ------------------------------------------------------------------------------

      R M S  F L U C T U A T I O N S

 NSTEP =     2000   TIME(PS) =       2.000  TEMP(K) =    85.54  PRESS =     0.0
 Etot   =         4.6923  EKtot   =         3.0598  EPtot      =         2.8472
 BOND   =         1.9059  ANGLE   =         1.5962  DIHED      =         0.5159
 1-4 NB =         0.1973  1-4 EEL =         0.9042  VDWAALS    =         0.0052
 EELEC  =         0.4859  EHBOND  =         0.0000  RESTRAINT  =         0.0000
 DV/DL  =         0.6671
 ------------------------------------------------------------------------------

      A V E R A G E S   O V E R    1000 S T E P S

 NSTEP =     2000   TIME(PS) =       2.000  TEMP(K) =   331.61  PRESS =     0.0
 Etot   =        35.3930  EKtot   =        11.8616  EPtot      =        23.5314
 BOND   =         4.9100  ANGLE   =         4.7874  DIHED      =         0.9802
 1-4 NB =         0.1706  1-4 EEL =        27.4227  VDWAALS    =        -0.0371
 EELEC  =       -14.7023  EHBOND  =         0.0000  RESTRAINT  =         0.0000
 DV/DL  =       -13.3642
 ------------------------------------------------------------------------------

      R M S  F L U C T U A T I O N S

 NSTEP =     2000   TIME(PS) =       2.000  TEMP(K) =    85.63  PRESS =     0.0
 Etot   =         4.6949  EKtot   =         3.0631  EPtot      =         2.8472
 BOND   =         1.9059  ANGLE   =         1.5962  DIHED      =         0.5159
 1-4 NB =         0.1973  1-4 EEL =         0.9042  VDWAALS    =         0.0052
 EELEC  =         0.4859  EHBOND  =         0.0000  RESTRAINT  =         0.0000
 DV/DL  =         0.6671
 ------------------------------------------------------------------------------

      DV/DL, AVERAGES OVER    1000 STEPS

 NSTEP =     2000   TIME(PS) =       2.000  TEMP(K) =    85.63  PRESS =     0.0
 Etot   =         0.0000  EKtot   =         0.0000  EPtot      =       -13.3642
 BOND   =        -0.0011  ANGLE   =        -0.0020  DIHED      =        -0.0002
 1-4 NB =        -0.0000  1-4 EEL =       -28.8035  VDWAALS    =        -0.0000
 EELEC  =        15.4426  EHBOND  =         0.0000  RESTRAINT  =         0.0000
 DV/DL  =       -13.3642
 ------------------------------------------------------------------------------

      A V E R A G E S   O V E R    1000 S T E P S

 NSTEP =  1000000   TIME(PS) =    1000.000  TEMP(K) =   329.98  PRESS =     0.0
 Etot   =        34.2986  EKtot   =        11.8033  EPtot      =        22.4953
 BOND   =         4.0256  ANGLE   =         5.1571  DIHED      =         0.5965
 1-4 NB =         0.1444  1-4 EEL =        26.4585  VDWAALS    =        -0.0493
 EELEC  =       -13.8375  EHBOND  =         0.0000  RESTRAINT  =         0.0000
 DV/DL  =       -13.2584
 ------------------------------------------------------------------------------

      R M S  F L U C T U A T I O N S

 NSTEP =  1000000   TIME(PS) =    1000.000  TEMP(K) =    64.64  PRESS =     0.0
 Etot   =         2.3804  EKtot   =         2.3123  EPtot      =         1.8630
 BOND   =         1.3630  ANGLE   =         1.5732  DIHED      =         0.3366
 1-4 NB =         0.1833  1-4 EEL =         0.7127  VDWAALS    =         0.0074
 EELEC  =         0.4136  EHBOND  =         0.0000  RESTRAINT  =         0.0000
 DV/DL  =         0.5197
 ------------------------------------------------------------------------------

      A V E R A G E S   O V E R    1000 S T E P S

 NSTEP =  1000000   TIME(PS) =    1000.000  TEMP(K) =   330.07  PRESS =     0.0
 Etot   =        34.3017  EKtot   =        11.8064  EPtot      =        22.4953
 BOND   =         4.0256  ANGLE   =         5.1571  DIHED      =         0.5965
 1-4 NB =         0.1444  1-4 EEL =        26.4585  VDWAALS    =        -0.0493
 EELEC  =       -13.8375  EHBOND  =         0.0000  RESTRAINT  =         0.0000
 DV/DL  =       -13.2584
 ------------------------------------------------------------------------------

      R M S  F L U C T U A T I O N S

 NSTEP =  1000000   TIME(PS) =    1000.000  TEMP(K) =    64.74  PRESS =     0.0
 Etot   =         2.3848  EKtot   =         2.3158  EPtot      =         1.8630
 BOND   =         1.3630  ANGLE   =         1.5732  DIHED      =         0.3366
 1-4 NB =         0.1833  1-4 EEL =         0.7127  VDWAALS    =         0.0074
 EELEC  =         0.4136  EHBOND  =         0.0000  RESTRAINT  =         0.0000
 DV/DL  =         0.5197
 ------------------------------------------------------------------------------

      DV/DL, AVERAGES OVER    1000 STEPS

 NSTEP =  1000000   TIME(PS) =    1000.000  TEMP(K) =    64.74  PRESS =     0.0
 Etot   =         0.0000  EKtot   =         0.0000  EPtot      =       -13.2584
 BOND   =        -0.0030  ANGLE   =         0.0011  DIHED      =         0.0000
 1-4 NB =        -0.0001  1-4 EEL =       -27.7908  VDWAALS    =         0.0000
 EELEC  =        14.5343  EHBOND  =         0.0000  RESTRAINT  =         0.0000
 DV/DL  =       -13.2584
 ------------------------------------------------------------------------------

      A V E R A G E S   O V E R 1000000 S T E P S

 NSTEP =  1000000   TIME(PS) =    1000.000  TEMP(K) =   302.90  PRESS =     0.0
 Etot   =        32.8386  EKtot   =        10.8347  EPtot      =        22.0039
 BOND   =         3.6072  ANGLE   =         4.7848  DIHED      =         1.1019
 1-4 NB =         0.3852  1-4 EEL =        32.9043  VDWAALS    =        -0.0766
 EELEC  =       -20.7029  EHBOND  =         0.0000  RESTRAINT  =         0.0000
 DV/DL  =       -12.8157
 ------------------------------------------------------------------------------

      R M S  F L U C T U A T I O N S

 NSTEP =  1000000   TIME(PS) =    1000.000  TEMP(K) =    72.29  PRESS =     0.0
 Etot   =         3.7151  EKtot   =         2.5856  EPtot      =         2.6142
 BOND   =         1.5520  ANGLE   =         1.8179  DIHED      =         0.7867
 1-4 NB =         0.4008  1-4 EEL =         5.8806  VDWAALS    =         0.0368
 EELEC  =         6.1651  EHBOND  =         0.0000  RESTRAINT  =         0.0000
 DV/DL  =         0.6909
 ------------------------------------------------------------------------------

      A V E R A G E S   O V E R 1000000 S T E P S

 NSTEP =  1000000   TIME(PS) =    1000.000  TEMP(K) =   302.91  PRESS =     0.0
 Etot   =        32.8387  EKtot   =        10.8348  EPtot      =        22.0039
 BOND   =         3.6072  ANGLE   =         4.7848  DIHED      =         1.1019
 1-4 NB =         0.3852  1-4 EEL =        32.9043  VDWAALS    =        -0.0766
 EELEC  =       -20.7029  EHBOND  =         0.0000  RESTRAINT  =         0.0000
 DV/DL  =       -12.8157
 ------------------------------------------------------------------------------

      R M S  F L U C T U A T I O N S

 NSTEP =  1000000   TIME(PS) =    1000.000  TEMP(K) =    72.29  PRESS =     0.0
 Etot   =         3.7153  EKtot   =         2.5859  EPtot      =         2.6142
 BOND   =         1.5520  ANGLE   =         1.8179  DIHED      =         0.7867
 1-4 NB =         0.4008  1-4 EEL =         5.8806  VDWAALS    =         0.0368
 EELEC  =         6.1651  EHBOND  =         0.0000  RESTRAINT  =         0.0000
 DV/DL  =         0.6909
 ------------------------------------------------------------------------------

      DV/DL, AVERAGES OVER 1000000 STEPS

 NSTEP =  1000000   TIME(PS) =    1000.000  TEMP(K) =    72.29  PRESS =     0.0
 Etot   =         0.0000  EKtot   =         0.0000  EPtot      =       -12.8157
 BOND   =         0.0000  ANGLE   =        -0.0000  DIHED      =        -0.0000
 1-4 NB =        -0.0000  1-4 EEL =       -34.5611  VDWAALS    =        -0.0000
 EELEC  =        21.7454  EHBOND  =         0.0000  RESTRAINT  =         0.0000
 DV/DL  =       -12.8157
 ------------------------------------------------------------------------------
