-------------------------------------------------------
          Amber 20 PMEMD                              2020
          -------------------------------------------------------

  [-O]verwriting output

File Assignments:

 Here is the input file:

 &cntrl
   nstlim=500000, nscm=1000,
   ntx=5, irest=1, ntpr=1000,
   tempi=300.0, temp0=300.0, ntt=3, gamma_ln=2.0,
   ntp=1, pres0=1.01325, taup=5.0,
   ntb=2, igb=0, cut=10.0,
   dt=0.002, ig=-1,
   ntc=2, ntf=2,
   iwrap=0,
   ntwr=1000, ntwx=50000, ntave=1000,
   ioutfm=1, ntwv=-1,
   ifsc = 0, icfe=1,
   clambda=0.79366,
   timask1=':1',
   timask2=':2', crgmask = ':2',
/

Note: ig = -1. Setting random seed to   204255 based on wallclock time in
      microseconds.

--------------------------------------------------------------------------------
   1.  RESOURCE   USE:
--------------------------------------------------------------------------------

 getting box info from netcdf restart file
 NATOM  =   20967 NTYPES =       6 NBONH =   20959 MBONA  =       6
 NTHETH =      32 MTHETA =       4 NPHIH =      40 MPHIA  =       2
 NHPARM =       0 NPARM  =       0 NNB   =   28026 NRES   =    6983
 NBONA  =       6 NTHETA =       4 NPHIA =       2 NUMBND =       6
 NUMANG =       6 NPTRA  =       2 NATYP =       6 NPHB   =       1
 IFBOX  =       2 NMXRS  =      12 IFCAP =       0 NEXTRA =       0
 NCOPY  =       0

     BOX TYPE: TRUNCATED OCTAHEDRON

--------------------------------------------------------------------------------
   2.  CONTROL  DATA  FOR  THE  RUN
--------------------------------------------------------------------------------

default_name

General flags:
     imin    =       0, nmropt  =       0

Nature and format of input:
     ntx     =       5, irest   =       1, ntrx    =       1

Nature and format of output:
     ntxo    =       2, ntpr    =    1000, ntrx    =       1, ntwr    =    1000
     iwrap   =       0, ntwx    =   50000, ntwv    =      -1, ntwe    =       0
     ioutfm  =       1, ntwprt  =       0, idecomp =       0, rbornstat=      0

Potential function:
     ntf     =       2, ntb     =       2, igb     =       0, nsnb    =      25
     ipol    =       0, gbsa    =       0, iesp    =       0
     dielc   =   1.00000, cut     =  10.00000, intdiel =   1.00000

Frozen or restrained atoms:
     ibelly  =       0, ntr     =       0

Molecular dynamics:
     nstlim  =    500000, nscm    =      1000, nrespa  =         1
     t       =   0.00000, dt      =   0.00200, vlimit  =  -1.00000

Langevin dynamics temperature regulation:
     ig      =  204255
     temp0   = 300.00000, tempi   = 300.00000, gamma_ln=   2.00000

Pressure regulation:
     ntp     =       1
     pres0   =   1.01325, comp    =  44.60000, taup    =   5.00000

SHAKE:
     ntc     =       2, jfastw  =       0
     tol     =   0.00001

Free energy options:
     icfe    =       1, ifsc    =       0, klambda =       1
     clambda =  0.7937, scalpha =  0.5000, scbeta  = 12.0000
     sceeorder =       2
     dynlmb =  0.0000 logdvdl =       0

Ewald parameters:
     verbose =       0, ew_type =       0, nbflag  =       1, use_pme =       1
     vdwmeth =       1, eedmeth =       1, netfrc  =       1
     Box X =   67.054   Box Y =   67.054   Box Z =   67.054
     Alpha =  109.471   Beta  =  109.471   Gamma =  109.471
     NFFT1 =   64       NFFT2 =   64       NFFT3 =   64
     Cutoff=   10.000   Tol   =0.100E-04
     Ewald Coefficient =  0.27511
     Interpolation order =    4
     TI Mask 1 :1; matches     12 atoms
     TI Mask 2 :2; matches     12 atoms
     TI region 1:   20955 atoms
     TI region 2:   20955 atoms
Removing charge of      -0.6664 from atom      13
Removing charge of      -0.6664 from atom      14
Removing charge of      -0.0664 from atom      15
Removing charge of      -0.0664 from atom      16
Removing charge of       0.2792 from atom      17
Removing charge of       0.2802 from atom      18
Removing charge of       0.2802 from atom      19
Removing charge of       0.2792 from atom      20
Removing charge of       0.0898 from atom      21
Removing charge of       0.0837 from atom      22
Removing charge of       0.0898 from atom      23
Removing charge of       0.0837 from atom      24
Total charge of  -0.00000000 removed from      12 atoms
     Checking for mismatched coordinates.

--------------------------------------------------------------------------------
   3.  ATOMIC COORDINATES AND VELOCITIES
--------------------------------------------------------------------------------

default_name
 begin time read from input coords =   200.000 ps

 Number of triangulated 3-point waters found:     6981

     Sum of charges for TI region  1 =  -0.00000000
     Skip neutralizing charges...

     Sum of charges for TI region  2 =   0.00000000
     Skip neutralizing charges...

--------------------------------------------------------------------------------
   4.  RESULTS
 NSTEP =     1000   TIME(PS) =     202.000  TEMP(K) =   301.53  PRESS =  -443.1
 Etot   =    -53229.2364  EKtot   =     12557.4330  EPtot      =    -65786.6694
 BOND   =         1.9259  ANGLE   =         4.0788  DIHED      =         0.8031
 1-4 NB =         0.1468  1-4 EEL =         7.9445  VDWAALS    =      9912.7567
 EELEC  =    -75714.3252  EHBOND  =         0.0000  RESTRAINT  =         0.0000
 EKCMT  =      6272.6693  VIRIAL  =      8466.4322  VOLUME     =    229314.2656
                                                    Density    =         0.9112
 DV/DL  =        -8.5292
 ------------------------------------------------------------------------------

      A V E R A G E S   O V E R    1000 S T E P S

 NSTEP =     1000   TIME(PS) =     202.000  TEMP(K) =   300.20  PRESS =  -672.3
 Etot   =    -53166.7102  EKtot   =     12502.0674  EPtot      =    -65668.7776
 BOND   =         0.8328  ANGLE   =         4.5063  DIHED      =         0.9213
 1-4 NB =         0.7127  1-4 EEL =         8.4779  VDWAALS    =      9712.7562
 EELEC  =    -75396.9848  EHBOND  =         0.0000  RESTRAINT  =         0.0000
 EKCMT  =      6262.3184  VIRIAL  =      9611.1580  VOLUME     =    230667.8230
                                                    Density    =         0.9059
 DV/DL  =       -11.5204
 ------------------------------------------------------------------------------

      R M S  F L U C T U A T I O N S

 NSTEP =     1000   TIME(PS) =     202.000  TEMP(K) =     1.76  PRESS =   130.1
 Etot   =        97.7519  EKtot   =        73.3595  EPtot      =       109.4301
 BOND   =         0.6924  ANGLE   =         1.4189  DIHED      =         0.5778
 1-4 NB =         0.4975  1-4 EEL =         0.4816  VDWAALS    =       123.3633
 EELEC  =       172.8021  EHBOND  =         0.0000  RESTRAINT  =         0.0000
 EKCMT  =        58.4645  VIRIAL  =       655.7798  VOLUME     =       794.8799
                                                    Density    =         0.0031
 DV/DL  =         1.7242
 ------------------------------------------------------------------------------

      A V E R A G E S   O V E R    1000 S T E P S

 NSTEP =     1000   TIME(PS) =     202.000  TEMP(K) =   300.20  PRESS =  -672.3
 Etot   =    -53166.7102  EKtot   =     12502.0674  EPtot      =    -65668.7776
 BOND   =         0.8328  ANGLE   =         4.5063  DIHED      =         0.9213
 1-4 NB =         0.7127  1-4 EEL =         8.4779  VDWAALS    =      9712.7562
 EELEC  =    -75396.9848  EHBOND  =         0.0000  RESTRAINT  =         0.0000
 EKCMT  =      6262.3184  VIRIAL  =      9611.1580  VOLUME     =    230667.8230
                                                    Density    =         0.9059
 DV/DL  =       -11.5204
 ------------------------------------------------------------------------------

      R M S  F L U C T U A T I O N S

 NSTEP =     1000   TIME(PS) =     202.000  TEMP(K) =     1.76  PRESS =   130.1
 Etot   =        97.7519  EKtot   =        73.3595  EPtot      =       109.4301
 BOND   =         0.6924  ANGLE   =         1.4189  DIHED      =         0.5778
 1-4 NB =         0.4975  1-4 EEL =         0.4816  VDWAALS    =       123.3633
 EELEC  =       172.8021  EHBOND  =         0.0000  RESTRAINT  =         0.0000
 EKCMT  =        58.4645  VIRIAL  =       655.7798  VOLUME     =       794.8799
                                                    Density    =         0.0031
 DV/DL  =         1.7242
 ------------------------------------------------------------------------------

      DV/DL, AVERAGES OVER    1000 STEPS

 NSTEP =     1000   TIME(PS) =     202.000  TEMP(K) =     1.76  PRESS =     0.0
 Etot   =         0.0000  EKtot   =         0.0000  EPtot      =       -11.5204
 BOND   =         0.0000  ANGLE   =         0.0000  DIHED      =         0.0000
 1-4 NB =         0.0000  1-4 EEL =       -41.0871  VDWAALS    =         0.0000
 EELEC  =        29.5667  EHBOND  =         0.0000  RESTRAINT  =         0.0000
 EKCMT  =         0.0000  VIRIAL  =         0.0000  VOLUME     =         0.0000
                                                    Density    =         0.0000
 DV/DL  =       -11.5204
 ------------------------------------------------------------------------------

      A V E R A G E S   O V E R    1000 S T E P S

 NSTEP =     2000   TIME(PS) =     204.000  TEMP(K) =   299.71  PRESS =  -565.6
 Etot   =    -53320.6561  EKtot   =     12481.5640  EPtot      =    -65802.2202
 BOND   =         0.9687  ANGLE   =         4.2298  DIHED      =         1.3485
 1-4 NB =         0.8596  1-4 EEL =         8.5160  VDWAALS    =      9738.8298
 EELEC  =    -75556.9725  EHBOND  =         0.0000  RESTRAINT  =         0.0000
 EKCMT  =      6267.5219  VIRIAL  =      9053.8445  VOLUME     =    228126.0999
                                                    Density    =         0.9159
 DV/DL  =       -12.0031
 ------------------------------------------------------------------------------

      R M S  F L U C T U A T I O N S

 NSTEP =     2000   TIME(PS) =     204.000  TEMP(K) =     1.66  PRESS =   126.3
 Etot   =       150.2157  EKtot   =        68.9341  EPtot      =       137.5810
 BOND   =         0.6749  ANGLE   =         1.2224  DIHED      =         0.8942
 1-4 NB =         0.8687  1-4 EEL =         0.4900  VDWAALS    =       140.0845
 EELEC  =       234.4749  EHBOND  =         0.0000  RESTRAINT  =         0.0000
 EKCMT  =        53.3410  VIRIAL  =       623.6158  VOLUME     =       681.6047
                                                    Density    =         0.0027
 DV/DL  =         2.0681
 ------------------------------------------------------------------------------

      A V E R A G E S   O V E R    1000 S T E P S

 NSTEP =     2000   TIME(PS) =     204.000  TEMP(K) =   299.71  PRESS =  -565.6
 Etot   =    -53320.6561  EKtot   =     12481.5640  EPtot      =    -65802.2202
 BOND   =         0.9687  ANGLE   =         4.2298  DIHED      =         1.3485
 1-4 NB =         0.8596  1-4 EEL =         8.5160  VDWAALS    =      9738.8298
 EELEC  =    -75556.9725  EHBOND  =         0.0000  RESTRAINT  =         0.0000
 EKCMT  =      6267.5219  VIRIAL  =      9053.8445  VOLUME     =    228126.0999
                                                    Density    =         0.9159
 DV/DL  =       -12.0031
 ------------------------------------------------------------------------------

      R M S  F L U C T U A T I O N S

 NSTEP =     2000   TIME(PS) =     204.000  TEMP(K) =     1.66  PRESS =   126.3
 Etot   =       150.2157  EKtot   =        68.9341  EPtot      =       137.5810
 BOND   =         0.6749  ANGLE   =         1.2224  DIHED      =         0.8942
 1-4 NB =         0.8687  1-4 EEL =         0.4900  VDWAALS    =       140.0845
 EELEC  =       234.4749  EHBOND  =         0.0000  RESTRAINT  =         0.0000
 EKCMT  =        53.3410  VIRIAL  =       623.6158  VOLUME     =       681.6047
                                                    Density    =         0.0027
 DV/DL  =         2.0681
 ------------------------------------------------------------------------------

      DV/DL, AVERAGES OVER    1000 STEPS

 NSTEP =     2000   TIME(PS) =     204.000  TEMP(K) =     1.66  PRESS =     0.0
 Etot   =         0.0000  EKtot   =         0.0000  EPtot      =       -12.0031
 BOND   =         0.0000  ANGLE   =         0.0000  DIHED      =         0.0000
 1-4 NB =         0.0000  1-4 EEL =       -41.2717  VDWAALS    =         0.0000
 EELEC  =        29.2686  EHBOND  =         0.0000  RESTRAINT  =         0.0000
 EKCMT  =         0.0000  VIRIAL  =         0.0000  VOLUME     =         0.0000
                                                    Density    =         0.0000
 DV/DL  =       -12.0031
 ------------------------------------------------------------------------------

      A V E R A G E S   O V E R    1000 S T E P S

 NSTEP =   500000   TIME(PS) =    1200.000  TEMP(K) =   299.66  PRESS =   -22.6
 Etot   =    -54196.6073  EKtot   =     12479.4408  EPtot      =    -66676.0481
 BOND   =         0.8917  ANGLE   =         3.6899  DIHED      =         0.9252
 1-4 NB =         0.6725  1-4 EEL =         8.2131  VDWAALS    =      9981.6508
 EELEC  =    -76672.0912  EHBOND  =         0.0000  RESTRAINT  =         0.0000
 EKCMT  =      6261.4614  VIRIAL  =      6365.1649  VOLUME     =    212671.4134
                                                    Density    =         0.9825
 DV/DL  =       -11.5543
 ------------------------------------------------------------------------------

      R M S  F L U C T U A T I O N S

 NSTEP =   500000   TIME(PS) =    1200.000  TEMP(K) =     1.96  PRESS =   114.3
 Etot   =       182.0729  EKtot   =        81.5149  EPtot      =       139.2562
 BOND   =         0.6601  ANGLE   =         1.1057  DIHED      =         0.6264
 1-4 NB =         0.5557  1-4 EEL =         0.4675  VDWAALS    =        93.3543
 EELEC  =       183.0175  EHBOND  =         0.0000  RESTRAINT  =         0.0000
 EKCMT  =        67.3029  VIRIAL  =       514.5853  VOLUME     =        42.9378
                                                    Density    =         0.0002
 DV/DL  =         2.1293
 ------------------------------------------------------------------------------

      A V E R A G E S   O V E R    1000 S T E P S

 NSTEP =   500000   TIME(PS) =    1200.000  TEMP(K) =   299.66  PRESS =   -22.6
 Etot   =    -54196.6073  EKtot   =     12479.4408  EPtot      =    -66676.0481
 BOND   =         0.8917  ANGLE   =         3.6899  DIHED      =         0.9252
 1-4 NB =         0.6725  1-4 EEL =         8.2131  VDWAALS    =      9981.6508
 EELEC  =    -76672.0912  EHBOND  =         0.0000  RESTRAINT  =         0.0000
 EKCMT  =      6261.4614  VIRIAL  =      6365.1649  VOLUME     =    212671.4134
                                                    Density    =         0.9825
 DV/DL  =       -11.5543
 ------------------------------------------------------------------------------

      R M S  F L U C T U A T I O N S

 NSTEP =   500000   TIME(PS) =    1200.000  TEMP(K) =     1.96  PRESS =   114.3
 Etot   =       182.0729  EKtot   =        81.5149  EPtot      =       139.2562
 BOND   =         0.6601  ANGLE   =         1.1057  DIHED      =         0.6264
 1-4 NB =         0.5557  1-4 EEL =         0.4675  VDWAALS    =        93.3543
 EELEC  =       183.0175  EHBOND  =         0.0000  RESTRAINT  =         0.0000
 EKCMT  =        67.3029  VIRIAL  =       514.5853  VOLUME     =        42.9378
                                                    Density    =         0.0002
 DV/DL  =         2.1293
 ------------------------------------------------------------------------------

      DV/DL, AVERAGES OVER    1000 STEPS

 NSTEP =   500000   TIME(PS) =    1200.000  TEMP(K) =     1.96  PRESS =     0.0
 Etot   =         0.0000  EKtot   =         0.0000  EPtot      =       -11.5543
 BOND   =         0.0000  ANGLE   =         0.0000  DIHED      =         0.0000
 1-4 NB =         0.0000  1-4 EEL =       -39.8035  VDWAALS    =         0.0000
 EELEC  =        28.2492  EHBOND  =         0.0000  RESTRAINT  =         0.0000
 EKCMT  =         0.0000  VIRIAL  =         0.0000  VOLUME     =         0.0000
                                                    Density    =         0.0000
 DV/DL  =       -11.5543
 ------------------------------------------------------------------------------

      A V E R A G E S   O V E R  500000 S T E P S

 NSTEP =   500000   TIME(PS) =    1200.000  TEMP(K) =   300.09  PRESS =    -8.8
 Etot   =    -54070.6971  EKtot   =     12497.5819  EPtot      =    -66568.2790
 BOND   =         0.9339  ANGLE   =         4.8754  DIHED      =         1.1017
 1-4 NB =         0.4631  1-4 EEL =         7.1342  VDWAALS    =      9952.1362
 EELEC  =    -76534.9235  EHBOND  =         0.0000  RESTRAINT  =         0.0000
 EKCMT  =      6266.1330  VIRIAL  =      6308.4127  VOLUME     =    212823.3606
                                                    Density    =         0.9818
 DV/DL  =       -11.4891
 ------------------------------------------------------------------------------

      R M S  F L U C T U A T I O N S

 NSTEP =   500000   TIME(PS) =    1200.000  TEMP(K) =     2.04  PRESS =   143.7
 Etot   =       164.7399  EKtot   =        84.8782  EPtot      =       143.0354
 BOND   =         0.7608  ANGLE   =         1.7291  DIHED      =         0.7971
 1-4 NB =         0.5679  1-4 EEL =         1.3405  VDWAALS    =       128.2876
 EELEC  =       221.2311  EHBOND  =         0.0000  RESTRAINT  =         0.0000
 EKCMT  =        60.7281  VIRIAL  =       665.3400  VOLUME     =      1514.9528
                                                    Density    =         0.0066
 DV/DL  =         2.3950
 ------------------------------------------------------------------------------

      A V E R A G E S   O V E R  500000 S T E P S

 NSTEP =   500000   TIME(PS) =    1200.000  TEMP(K) =   300.09  PRESS =    -8.8
 Etot   =    -54070.6971  EKtot   =     12497.5819  EPtot      =    -66568.2790
 BOND   =         0.9339  ANGLE   =         4.8754  DIHED      =         1.1017
 1-4 NB =         0.4631  1-4 EEL =         7.1342  VDWAALS    =      9952.1362
 EELEC  =    -76534.9235  EHBOND  =         0.0000  RESTRAINT  =         0.0000
 EKCMT  =      6266.1330  VIRIAL  =      6308.4127  VOLUME     =    212823.3606
                                                    Density    =         0.9818
 DV/DL  =       -11.4891
 ------------------------------------------------------------------------------

      R M S  F L U C T U A T I O N S

 NSTEP =   500000   TIME(PS) =    1200.000  TEMP(K) =     2.04  PRESS =   143.7
 Etot   =       164.7399  EKtot   =        84.8782  EPtot      =       143.0354
 BOND   =         0.7608  ANGLE   =         1.7291  DIHED      =         0.7971
 1-4 NB =         0.5679  1-4 EEL =         1.3405  VDWAALS    =       128.2876
 EELEC  =       221.2311  EHBOND  =         0.0000  RESTRAINT  =         0.0000
 EKCMT  =        60.7281  VIRIAL  =       665.3400  VOLUME     =      1514.9528
                                                    Density    =         0.0066
 DV/DL  =         2.3950
 ------------------------------------------------------------------------------

      DV/DL, AVERAGES OVER  500000 STEPS

 NSTEP =   500000   TIME(PS) =    1200.000  TEMP(K) =     2.04  PRESS =     0.0
 Etot   =         0.0000  EKtot   =         0.0000  EPtot      =       -11.4891
 BOND   =         0.0000  ANGLE   =         0.0000  DIHED      =         0.0000
 1-4 NB =         0.0000  1-4 EEL =       -34.5749  VDWAALS    =         0.0000
 EELEC  =        23.0858  EHBOND  =         0.0000  RESTRAINT  =         0.0000
 EKCMT  =         0.0000  VIRIAL  =         0.0000  VOLUME     =         0.0000
                                                    Density    =         0.0000
 DV/DL  =       -11.4891
 ------------------------------------------------------------------------------
